6
0 1 
 C   -0.322182998940    0.101257186982    0.000000000000
 H   -1.438312138940    0.204701206982    0.000000000000
 O    0.317399861060    1.165855776982    0.000000000000
 N    0.000077911060   -1.194635893018    0.000000000000
 H    1.022797481060   -1.482826253018    0.000000000000
 H   -0.786756218940   -1.831814613018    0.000000000000
