7
0 1 
 C    0.327904220235   -0.078398909228    0.000000000000
 H    1.436790510235   -0.149919279228    0.000000000000
 N   -0.307747689765   -1.220448059228    0.000000000000
 H    0.383460690235   -1.971386839228    0.000000000000
 N   -0.072662149765    1.200813210772    0.000000000000
 H   -1.102777029765    1.434646040772    0.000000000000
 H    0.663774010235    1.892955920772    0.000000000000
