14
0 1 
 C    3.197406730000   -0.128816360000    0.000000000000
 H    4.301203670000   -0.173285860000    0.000000000000
 N    2.425810250000   -1.173052300000    0.000000000000
 H    3.009050030000   -2.016682260000    0.000000000000
 N    2.682676360000    1.145687530000    0.000000000000
 H    1.676203880000    1.270712770000    0.000000000000
 H    3.284368820000    1.955082700000    0.000000000000
 C   -3.197406730000    0.128816360000    0.000000000000
 H   -4.301203670000    0.173285860000    0.000000000000
 N   -2.425810250000    1.173052300000    0.000000000000
 H   -3.009050030000    2.016682260000    0.000000000000
 N   -2.682676360000   -1.145687530000    0.000000000000
 H   -1.676203880000   -1.270712770000    0.000000000000
 H   -3.284368820000   -1.955082700000    0.000000000000
