12
0 1 
 C    4.998395410000   -0.126695270000    0.000000000000
 H    6.111683020000   -0.154913980000    0.000000000000
 O    4.308036640000   -1.142118660000    0.000000000000
 N    4.501928440000    1.151876230000    0.000000000000
 H    3.498006100000    1.294360650000    0.000000000000
 H    5.119984800000    1.952446880000    0.000000000000
 C   -4.998395410000    0.126695270000    0.000000000000
 H   -6.111683020000    0.154913980000    0.000000000000
 O   -4.308036640000    1.142118660000    0.000000000000
 N   -4.501928440000   -1.151876230000    0.000000000000
 H   -3.498006100000   -1.294360650000    0.000000000000
 H   -5.119984800000   -1.952446880000    0.000000000000
