7
0 1 
 C    0.428042742189   -0.097053867727    0.000000000000
 H    1.529542912189   -0.154701377727    0.000000000000
 N   -0.337559267811   -1.155671457727    0.000000000000
 H    0.253385992189   -1.993079067727    0.000000000000
 N   -0.110892977811    1.159906552273    0.000000000000
 H   -1.126574227811    1.265455002273    0.000000000000
 H    0.477966302189    1.979085332273    0.000000000000
