10
0 1 
 C    3.996469440000   -0.168039890000    0.000000000000
 H    5.101568770000   -0.214506090000    0.000000000000
 O    3.254149990000   -1.129725450000    0.000000000000
 O    3.592846220000    1.131178510000    0.000000000000
 H    2.618304790000    1.120958790000    0.000000000000
 C   -3.996469440000    0.168039890000    0.000000000000
 H   -5.101568770000    0.214506090000    0.000000000000
 O   -3.254149990000    1.129725450000    0.000000000000
 O   -3.592846220000   -1.131178510000    0.000000000000
 H   -2.618304790000   -1.120958790000    0.000000000000
