6
0 1 
 C    0.406403090802   -0.118549902714    0.000000000000
 H    1.517863780802   -0.174522532714    0.000000000000
 O   -0.302900639198   -1.124648432714    0.000000000000
 N   -0.073816669198    1.163101367286    0.000000000000
 H   -1.077844719198    1.318398017286    0.000000000000
 H    0.553896570802    1.956126867286    0.000000000000
