10
0 1 
 C    2.290517470000   -0.208642060000    0.000000000000
 H    3.390635280000   -0.308851220000    0.000000000000
 O    1.510859840000   -1.150293320000    0.000000000000
 O    1.920952510000    1.091130930000    0.000000000000
 H    0.940367240000    1.121355400000    0.000000000000
 C   -2.290517470000    0.208642060000    0.000000000000
 H   -3.390635280000    0.308851220000    0.000000000000
 O   -1.510859840000    1.150293320000    0.000000000000
 O   -1.920952510000   -1.091130930000    0.000000000000
 H   -0.940367240000   -1.121355400000    0.000000000000
