12
0 1 
 C    3.997750750000   -0.134142900000    0.000000000000
 H    5.110672880000   -0.171486550000    0.000000000000
 O    3.300116210000   -1.145147690000    0.000000000000
 N    3.510150010000    1.147247270000    0.000000000000
 H    2.507093380000    1.297268820000    0.000000000000
 H    4.133747630000    1.943516700000    0.000000000000
 C   -3.997750750000    0.134142900000    0.000000000000
 H   -5.110672880000    0.171486550000    0.000000000000
 O   -3.300116210000    1.145147690000    0.000000000000
 N   -3.510150010000   -1.147247270000    0.000000000000
 H   -2.507093380000   -1.297268820000    0.000000000000
 H   -4.133747630000   -1.943516700000    0.000000000000
