14
0 1 
 C    2.697246430000   -0.121918700000    0.000000000000
 H    3.800090140000   -0.171768520000    0.000000000000
 N    1.931397990000   -1.174744810000    0.000000000000
 H    2.522079520000   -2.013221390000    0.000000000000
 N    2.163395190000    1.142235170000    0.000000000000
 H    1.151643660000    1.249431380000    0.000000000000
 H    2.752700490000    1.960734030000    0.000000000000
 C   -2.697246430000    0.121918700000    0.000000000000
 H   -3.800090140000    0.171768520000    0.000000000000
 N   -1.931397990000    1.174744810000    0.000000000000
 H   -2.522079520000    2.013221390000    0.000000000000
 N   -2.163395190000   -1.142235170000    0.000000000000
 H   -1.151643660000   -1.249431380000    0.000000000000
 H   -2.752700490000   -1.960734030000    0.000000000000
