6
0 1 
 C   -0.405825344804    0.114002782276    0.000000000000
 H   -1.519167304804    0.141500802276    0.000000000000
 O    0.282890985196    1.130444472276    0.000000000000
 N    0.092734795196   -1.163802907724    0.000000000000
 H    1.096997795196   -1.304176997724    0.000000000000
 H   -0.523912584804   -1.965424277724    0.000000000000
