7
0 1 
 C    0.425760231672   -0.091221068375    0.000000000000
 H    1.527173381672   -0.149838968375    0.000000000000
 N   -0.326442758328   -1.160787278375    0.000000000000
 H    0.275294611672   -1.989968548375    0.000000000000
 N   -0.119907998328    1.159747791625    0.000000000000
 H   -1.138375438328    1.260797161625    0.000000000000
 H    0.468207061672    1.979606981625    0.000000000000
