7
0 1 
 C    0.380478685272   -0.080734615307    0.000000000000
 H    1.485881985272   -0.140677745307    0.000000000000
 N   -0.309659334728   -1.191419355307    0.000000000000
 H    0.340076505272   -1.980796885307    0.000000000000
 N   -0.105934034728    1.177370354693    0.000000000000
 H   -1.138061114728    1.337798314693    0.000000000000
 H    0.556207945272    1.940171284693    0.000000000000
