10
0 1 
 C    1.790358230000   -0.186060500000    0.000000000000
 H    2.890872140000   -0.300429880000    0.000000000000
 O    1.075689310000   -1.194259430000    0.000000000000
 O    1.441858160000    1.080496050000    0.000000000000
 H    0.432746610000    1.150453300000    0.000000000000
 C   -1.790358230000    0.186060500000    0.000000000000
 H   -2.890872140000    0.300429880000    0.000000000000
 O   -1.075689310000    1.194259430000    0.000000000000
 O   -1.441858160000   -1.080496050000    0.000000000000
 H   -0.432746610000   -1.150453300000    0.000000000000
