14
0 1 
 C    3.497644210000   -0.128409970000    0.000000000000
 H    4.601766920000   -0.168945930000    0.000000000000
 N    2.725698620000   -1.171266330000    0.000000000000
 H    3.307243900000   -2.016007260000    0.000000000000
 N    2.985188690000    1.147792350000    0.000000000000
 H    1.979664140000    1.275071360000    0.000000000000
 H    3.588436310000    1.956034700000    0.000000000000
 C   -3.497644210000    0.128409970000    0.000000000000
 H   -4.601766920000    0.168945930000    0.000000000000
 N   -2.725698620000    1.171266330000    0.000000000000
 H   -3.307243900000    2.016007260000    0.000000000000
 N   -2.985188690000   -1.147792350000    0.000000000000
 H   -1.979664140000   -1.275071360000    0.000000000000
 H   -3.588436310000   -1.956034700000    0.000000000000
