6
0 1 
 C    0.393788161664   -0.124537904319    0.000000000000
 H    1.500101001664   -0.221669754319    0.000000000000
 O   -0.357433448336   -1.117277284319    0.000000000000
 N   -0.012641028336    1.163326995681    0.000000000000
 H   -1.018241438336    1.370005915681    0.000000000000
 H    0.677739341664    1.902843865681    0.000000000000
