12
0 1 
 C   -1.811312601129    0.158327059425    0.000000000000
 H   -2.917396071129    0.257798489425    0.000000000000
 O   -1.143671671129    1.199400559425    0.000000000000
 O   -1.419775661129   -1.090009370575    0.000000000000
 H   -0.358497761129   -1.154131640575    0.000000000000
 C    1.873816058871   -0.173081010575    0.000000000000
 H    2.974273468871   -0.272046470575    0.000000000000
 N    1.098443678871   -1.223165930575    0.000000000000
 H    1.646499808871   -2.083316500575    0.000000000000
 N    1.486355448871    1.116476989425    0.000000000000
 H    0.481392828871    1.342142469425    0.000000000000
 H    2.199174718871    1.831482389425    0.000000000000
