10
0 1 
 C    2.893384690000   -0.195774960000    0.000000000000
 H    3.996673670000   -0.270426750000    0.000000000000
 O    2.125329270000   -1.139089750000    0.000000000000
 O    2.523038890000    1.111163940000    0.000000000000
 H    1.547584780000    1.133255610000    0.000000000000
 C   -2.893384690000    0.195774960000    0.000000000000
 H   -3.996673670000    0.270426750000    0.000000000000
 O   -2.125329270000    1.139089750000    0.000000000000
 O   -2.523038890000   -1.111163940000    0.000000000000
 H   -1.547584780000   -1.133255610000    0.000000000000
