6
0 1 
 C   -0.394191729701    0.095883788534    0.000000000000
 H   -1.505514649701    0.160204218534    0.000000000000
 O    0.280024040299    1.141330508534    0.000000000000
 N    0.086891550299   -1.163442971466    0.000000000000
 H    1.118300180299   -1.317445951466    0.000000000000
 H   -0.570698499701   -1.932889361466    0.000000000000
