13
0 1 
 C   -1.877202959627    0.130373159995    0.000000000000
 H   -2.990248799627    0.202310259995    0.000000000000
 O   -1.219843819627    1.186505179995    0.000000000000
 N   -1.439641869627   -1.138030780005    0.000000000000
 H   -0.406441809627   -1.330862530005    0.000000000000
 H   -2.138687379627   -1.870297170005    0.000000000000
 C    1.914885880373   -0.114712760005    0.000000000000
 H    3.018821410373   -0.186061050005    0.000000000000
 N    1.234041200373   -1.230714670005    0.000000000000
 H    1.889232470373   -2.015047410005    0.000000000000
 N    1.431872440373    1.143385609995    0.000000000000
 H    0.411074200373    1.298787059995    0.000000000000
 H    2.089122950373    1.909585729995    0.000000000000
