12
0 1 
 C    2.896330150000   -0.145857830000    0.000000000000
 H    4.007790840000   -0.201830460000    0.000000000000
 O    2.187026420000   -1.151956360000    0.000000000000
 N    2.416110390000    1.135793440000    0.000000000000
 H    1.412082340000    1.291090090000    0.000000000000
 H    3.043823630000    1.928818940000    0.000000000000
 C   -2.896330150000    0.145857830000    0.000000000000
 H   -4.007790840000    0.201830460000    0.000000000000
 O   -2.187026420000    1.151956360000    0.000000000000
 N   -2.416110390000   -1.135793440000    0.000000000000
 H   -1.412082340000   -1.291090090000    0.000000000000
 H   -3.043823630000   -1.928818940000    0.000000000000
