7
0 1 
 C    0.365043793500   -0.079725538338    0.000000000000
 H    1.471505493500   -0.142619748338    0.000000000000
 N   -0.308345046500   -1.200216918338    0.000000000000
 H    0.354048453500   -1.978259138338    0.000000000000
 N   -0.096895516500    1.184176711662    0.000000000000
 H   -1.129389966500    1.366037081662    0.000000000000
 H    0.587876433500    1.926988381662    0.000000000000
