11
0 1 
 C   -1.977583279974    0.162486099942    0.000000000000
 H   -3.078696939974    0.256728269942    0.000000000000
 O   -1.276617519974    1.173550759942    0.000000000000
 O   -1.535994179974   -1.094705600058    0.000000000000
 H   -0.537037099974   -1.088099810058    0.000000000000
 C    2.007846760026   -0.178619080058    0.000000000000
 H    3.114154200026   -0.273305770058    0.000000000000
 O    1.251855210026   -1.166735280058    0.000000000000
 N    1.588017140026    1.108295279942    0.000000000000
 H    0.581493750026    1.303803439942    0.000000000000
 H    2.265615750026    1.859529349942    0.000000000000
