13
0 1 
 C   -2.023760440461    0.121371301158    0.000000000000
 H   -3.134491290461    0.183607671158    0.000000000000
 O   -1.343610350461    1.162542291158    0.000000000000
 N   -1.527378850461   -1.135283318842    0.000000000000
 H   -0.497585910461   -1.275147218842    0.000000000000
 H   -2.169059030461   -1.917901478842    0.000000000000
 C    2.069819229539   -0.107999778842    0.000000000000
 H    3.171838089539   -0.169747988842    0.000000000000
 N    1.347873729539   -1.199066288842    0.000000000000
 H    1.972440499539   -2.009913168842    0.000000000000
 N    1.531677059539    1.138508511158    0.000000000000
 H    0.509451409539    1.247756241158    0.000000000000
 H    2.135512879539    1.947178781158    0.000000000000
