12
0 1 
 C    2.296045730000   -0.134817530000    0.000000000000
 H    3.405013120000   -0.199933070000    0.000000000000
 O    1.593370120000   -1.154846440000    0.000000000000
 N    1.784578160000    1.128192460000    0.000000000000
 H    0.769476080000    1.251108150000    0.000000000000
 H    2.392736530000    1.936415810000    0.000000000000
 C   -2.296045730000    0.134817530000    0.000000000000
 H   -3.405013120000    0.199933070000    0.000000000000
 O   -1.593370120000    1.154846440000    0.000000000000
 N   -1.784578160000   -1.128192460000    0.000000000000
 H   -0.769476080000   -1.251108150000    0.000000000000
 H   -2.392736530000   -1.936415810000    0.000000000000
