14
0 1 
 C    4.998551710000   -0.120371200000    0.000000000000
 H    6.103290530000   -0.146974660000    0.000000000000
 N    4.232171980000   -1.165744240000    0.000000000000
 H    4.815165180000   -2.009323800000    0.000000000000
 N    4.479664070000    1.154617250000    0.000000000000
 H    3.474287780000    1.276731500000    0.000000000000
 H    5.078870100000    1.965893190000    0.000000000000
 C   -4.998551710000    0.120371200000    0.000000000000
 H   -6.103290530000    0.146974660000    0.000000000000
 N   -4.232171980000    1.165744240000    0.000000000000
 H   -4.815165180000    2.009323800000    0.000000000000
 N   -4.479664070000   -1.154617250000    0.000000000000
 H   -3.474287780000   -1.276731500000    0.000000000000
 H   -5.078870100000   -1.965893190000    0.000000000000
