6
0 1 
 C    0.410886046583   -0.125741353070    0.000000000000
 H    1.518012896583   -0.213399643070    0.000000000000
 O   -0.339250453417   -1.112553713070    0.000000000000
 N   -0.041907883417    1.158913606930    0.000000000000
 H   -1.049112653417    1.328834536930    0.000000000000
 H    0.605183686583    1.936429056930    0.000000000000
