6
0 1 
 C    0.403434908939   -0.124825653547    0.000000000000
 H    1.515180468939   -0.182413593547    0.000000000000
 O   -0.315402851061   -1.121816143547    0.000000000000
 N   -0.059889701061    1.165080456453    0.000000000000
 H   -1.060102651061    1.335582396453    0.000000000000
 H    0.579092448939    1.949109196453    0.000000000000
