6
0 1 
 C   -0.405657304701    0.116046507862    0.000000000000
 H   -1.518315674701    0.158672827862    0.000000000000
 O    0.291579215299    1.127978317862    0.000000000000
 N    0.084211755299   -1.163807402138    0.000000000000
 H    1.088376325299   -1.310541062138    0.000000000000
 H   -0.537609984701   -1.961364422138    0.000000000000
