13
0 1 
 C   -2.270984809295    0.120717379444    0.000000000000
 H   -3.380799589295    0.178800039444    0.000000000000
 O   -1.584417409295    1.152761219444    0.000000000000
 N   -1.739271969295   -1.132612180556    0.000000000000
 H   -0.717586729295   -1.237699130556    0.000000000000
 H   -2.338805229295   -1.947317800556    0.000000000000
 C    2.322729180705   -0.119696710556    0.000000000000
 H    3.424229350705   -0.177344220556    0.000000000000
 N    1.557127170705   -1.178314300556    0.000000000000
 H    2.148072430705   -2.015721910556    0.000000000000
 N    1.783793460705    1.137263709444    0.000000000000
 H    0.768112210705    1.242812159444    0.000000000000
 H    2.372652740705    1.956442489444    0.000000000000
