13
0 1 
 C   -1.828685100570    0.137920201543    0.000000000000
 H   -2.942806540570    0.216538441543    0.000000000000
 O   -1.180291550570    1.199164211543    0.000000000000
 N   -1.421218470570   -1.137504178457    0.000000000000
 H   -0.388768400570   -1.356196728457    0.000000000000
 H   -2.146034980570   -1.844378548457    0.000000000000
 C    1.862137789430   -0.122523598457    0.000000000000
 H    2.966890299430   -0.200480718457    0.000000000000
 N    1.195688259430   -1.246585608457    0.000000000000
 H    1.862172129430   -2.020594638457    0.000000000000
 N    1.412336569430    1.144518631543    0.000000000000
 H    0.395163239430    1.327053961543    0.000000000000
 H    2.097248999430    1.886163081543    0.000000000000
