7
0 1 
 C    0.420339756809   -0.122605318287    0.000000000000
 H    1.522397306809   -0.190898668287    0.000000000000
 N   -0.390194293191   -1.139067328287    0.000000000000
 H    0.157295436809   -2.006009178287    0.000000000000
 N   -0.055812413191    1.166104351713    0.000000000000
 H   -1.058371893191    1.324416581713    0.000000000000
 H    0.570739076809    1.956669911713    0.000000000000
