11
0 1 
 C   -1.879703851058    0.161637149032    0.000000000000
 H   -2.981775381058    0.261629419032    0.000000000000
 O   -1.198496111058    1.188497599032    0.000000000000
 O   -1.454878991058   -1.090523310968    0.000000000000
 H   -0.445723901058   -1.102192030968    0.000000000000
 C    1.904751608942   -0.181731030968    0.000000000000
 H    3.011193278942   -0.282119810968    0.000000000000
 O    1.161641418942   -1.181192460968    0.000000000000
 N    1.515652268942    1.107802679032    0.000000000000
 H    0.511842648942    1.329232889032    0.000000000000
 H    2.222116558942    1.831963969032    0.000000000000
