6
0 1 
 C    0.403564612276   -0.122908467140    0.000000000000
 H    1.515813902276   -0.173626527140    0.000000000000
 O   -0.308922747724   -1.123744207140    0.000000000000
 N   -0.066209597724    1.165156562860    0.000000000000
 H   -1.066982327724    1.330192352860    0.000000000000
 H    0.568761252276    1.952426882860    0.000000000000
