10
0 1 
 C    2.390923650000   -0.208533070000    0.000000000000
 H    3.491711400000   -0.304542260000    0.000000000000
 O    1.611186530000   -1.147856460000    0.000000000000
 O    2.024882920000    1.094528490000    0.000000000000
 H    1.045947590000    1.125571840000    0.000000000000
 C   -2.390923650000    0.208533070000    0.000000000000
 H   -3.491711400000    0.304542260000    0.000000000000
 O   -1.611186530000    1.147856460000    0.000000000000
 O   -2.024882920000   -1.094528490000    0.000000000000
 H   -1.045947590000   -1.125571840000    0.000000000000
