6
0 1 
 C    0.411655331348   -0.099015177985    0.000000000000
 H    1.520267431348   -0.167124537985    0.000000000000
 O   -0.278887768652   -1.131987477985    0.000000000000
 N   -0.100131748652    1.156816892015    0.000000000000
 H   -1.120559448652    1.279309982015    0.000000000000
 H    0.516199371348    1.959014962015    0.000000000000
