13
0 1 
 C   -1.682245269969    0.200076859833    0.000000000000
 H   -2.798510359969    0.327316869833    0.000000000000
 O   -1.033376949969    1.256857819833    0.000000000000
 N   -1.423715539969   -1.110023380167    0.000000000000
 H   -0.414760389969   -1.446994230167    0.000000000000
 H   -2.248079259969   -1.697693440167    0.000000000000
 C    1.695879970031   -0.184986380167    0.000000000000
 H    2.801174160031   -0.310975840167    0.000000000000
 N    1.051279310031   -1.320388220167    0.000000000000
 H    1.741632100031   -2.071116570167    0.000000000000
 N    1.416251660031    1.126503299833    0.000000000000
 H    0.437681910031    1.446702929833    0.000000000000
 H    2.215820700031    1.742793489833    0.000000000000
