7
0 1 
 C    0.418171514879   -0.119467392148    0.000000000000
 H    1.521533374879   -0.174666952148    0.000000000000
 N   -0.377220305121   -1.144669922148    0.000000000000
 H    0.183170334879   -2.003456652148    0.000000000000
 N   -0.066804635121    1.167626247852    0.000000000000
 H   -1.068741935121    1.319314867852    0.000000000000
 H    0.554379684879    1.962323277852    0.000000000000
