7
0 1 
 C    0.425763801732   -0.124107530470    0.000000000000
 H    1.526031091732   -0.203543140470    0.000000000000
 N   -0.403679618268   -1.131762450470    0.000000000000
 H    0.123238911732   -2.010465510470    0.000000000000
 N   -0.046185108268    1.162106789530    0.000000000000
 H   -1.052561438268    1.320446019530    0.000000000000
 H    0.584372871732    1.949674859530    0.000000000000
