14
0 1 
 C    2.397422490000   -0.111208610000    0.000000000000
 H    3.499640900000   -0.162336930000    0.000000000000
 N    1.640413150000   -1.175356540000    0.000000000000
 H    2.239171840000   -2.007641820000    0.000000000000
 N    1.844362510000    1.141073850000    0.000000000000
 H    0.825903360000    1.233134940000    0.000000000000
 H    2.424932070000    1.966046700000    0.000000000000
 C   -2.397422490000    0.111208610000    0.000000000000
 H   -3.499640900000    0.162336930000    0.000000000000
 N   -1.640413150000    1.175356540000    0.000000000000
 H   -2.239171840000    2.007641820000    0.000000000000
 N   -1.844362510000   -1.141073850000    0.000000000000
 H   -0.825903360000   -1.233134940000    0.000000000000
 H   -2.424932070000   -1.966046700000    0.000000000000
