10
0 1 
 C    3.194588710000   -0.186027980000    0.000000000000
 H    4.298674580000   -0.250321350000    0.000000000000
 O    2.435453640000   -1.135455230000    0.000000000000
 O    2.813552860000    1.118900790000    0.000000000000
 H    1.838552200000    1.130098900000    0.000000000000
 C   -3.194588710000    0.186027980000    0.000000000000
 H   -4.298674580000    0.250321350000    0.000000000000
 O   -2.435453640000    1.135455230000    0.000000000000
 O   -2.813552860000   -1.118900790000    0.000000000000
 H   -1.838552200000   -1.130098900000    0.000000000000
