6
0 1 
 C    0.371824726703   -0.120586371056    0.000000000000
 H    1.478500806703   -0.225538901056    0.000000000000
 O   -0.360279963297   -1.128427791056    0.000000000000
 N    0.005426316703    1.171817328944    0.000000000000
 H   -0.995143793297    1.412786058944    0.000000000000
 H    0.731898986703    1.875881608944    0.000000000000
