7
0 1 
 C    0.423138507213   -0.105580755143    0.000000000000
 H    1.526437217213   -0.153686815143    0.000000000000
 N   -0.345893382787   -1.153769345143    0.000000000000
 H    0.241184047213   -1.994790345143    0.000000000000
 N   -0.099862262787    1.164304834857    0.000000000000
 H   -1.108688042787    1.281447844857    0.000000000000
 H    0.496314137213    1.977777494857    0.000000000000
