13
0 1 
 C   -2.666279240182    0.132465741478    0.000000000000
 H   -3.777283860182    0.187526901478    0.000000000000
 O   -1.973764520182    1.152721741478    0.000000000000
 N   -2.154488270182   -1.135259418522    0.000000000000
 H   -1.143154210182   -1.258388058522    0.000000000000
 H   -2.760954660182   -1.944493308522    0.000000000000
 C    2.727102199818   -0.134829088522    0.000000000000
 H    3.829781839818   -0.189477658522    0.000000000000
 N    1.944268659818   -1.174391238522    0.000000000000
 H    2.520080269818   -2.023035468522    0.000000000000
 N    2.218088889818    1.139694451478    0.000000000000
 H    1.210770189818    1.270826751478    0.000000000000
 H    2.823588069818    1.946431581478    0.000000000000
