7
0 1 
 C    0.409369052921   -0.119304030815    0.000000000000
 H    1.508924962921   -0.210065300815    0.000000000000
 N   -0.408432187079   -1.139232300815    0.000000000000
 H    0.117052512921   -2.016179140815    0.000000000000
 N   -0.030320607079    1.165944699185    0.000000000000
 H   -1.038210267079    1.349982569185    0.000000000000
 H    0.634130612921    1.925643109185    0.000000000000
