12
0 1 
 C   -2.100332498397    0.159398029530    0.000000000000
 H   -3.202312488397    0.244042559530    0.000000000000
 O   -1.389721798397    1.161598559530    0.000000000000
 O   -1.648100998397   -1.101309430470    0.000000000000
 H   -0.648703848397   -1.083835870470    0.000000000000
 C    2.187039121603   -0.169920610470    0.000000000000
 H    3.286681541603   -0.254385580470    0.000000000000
 N    1.354165051603   -1.177258150470    0.000000000000
 H    1.874212361603   -2.059114580470    0.000000000000
 N    1.725222551603    1.115722399530    0.000000000000
 H    0.717759601603    1.281821439530    0.000000000000
 H    2.366324231603    1.894929649530    0.000000000000
