14
0 1 
 C    2.197482980000   -0.105214940000    0.000000000000
 H    3.299947280000   -0.158000650000    0.000000000000
 N    1.454773740000   -1.182141330000    0.000000000000
 H    2.065232810000   -2.004940560000    0.000000000000
 N    1.647502750000    1.142250700000    0.000000000000
 H    0.623069650000    1.241812160000    0.000000000000
 H    2.240418830000    1.958931450000    0.000000000000
 C   -2.197482980000    0.105214940000    0.000000000000
 H   -3.299947280000    0.158000650000    0.000000000000
 N   -1.454773740000    1.182141330000    0.000000000000
 H   -2.065232810000    2.004940560000    0.000000000000
 N   -1.647502750000   -1.142250700000    0.000000000000
 H   -0.623069650000   -1.241812160000    0.000000000000
 H   -2.240418830000   -1.958931450000    0.000000000000
