6
0 1 
 C    0.405026002300   -0.119123216352    0.000000000000
 H    1.517139442300   -0.168973106352    0.000000000000
 O   -0.301474937700   -1.125558826352    0.000000000000
 N   -0.074301327700    1.164032303648    0.000000000000
 H   -1.077112037700    1.321033923648    0.000000000000
 H    0.554392082300    1.956281733648    0.000000000000
