6
0 1 
 C    0.347791836764   -0.100797450579    0.000000000000
 H    1.459156076764   -0.204941160579    0.000000000000
 O   -0.307816323236   -1.156037190579    0.000000000000
 N   -0.027799253236    1.184234189421    0.000000000000
 H   -1.036347273236    1.419395989421    0.000000000000
 H    0.707614366764    1.878707649421    0.000000000000
