11
0 1 
 C   -2.075494770354    0.168084040180    0.000000000000
 H   -3.176368010354    0.258550970180    0.000000000000
 O   -1.356221770354    1.163168340180    0.000000000000
 O   -1.637315020354   -1.098344669820    0.000000000000
 H   -0.645836810354   -1.088196599820    0.000000000000
 C    2.110395789646   -0.175901639820    0.000000000000
 H    3.216999619646   -0.266839489820    0.000000000000
 O    1.354013409646   -1.160970279820    0.000000000000
 N    1.670919819646    1.109759540180    0.000000000000
 H    0.663722449646    1.289599450180    0.000000000000
 H    2.330002879646    1.877222870180    0.000000000000
