13
0 1 
 C   -4.940514590832    0.125619690436    0.000000000000
 H   -6.053856550832    0.153117710436    0.000000000000
 O   -4.251798260832    1.142061380436    0.000000000000
 N   -4.441954450832   -1.152185999564    0.000000000000
 H   -3.437691450832   -1.292560089564    0.000000000000
 H   -5.058601830832   -1.953807369564    0.000000000000
 C    5.056438369168   -0.121291359564    0.000000000000
 H    6.161130029168   -0.148575729564    0.000000000000
 N    4.288760969168   -1.165802349564    0.000000000000
 H    4.870888439168   -2.009978529564    0.000000000000
 N    4.539359519168    1.154340780436    0.000000000000
 H    3.534254879168    1.278306610436    0.000000000000
 H    5.139788509168    1.964744730436    0.000000000000
