7
0 1 
 C    0.420650547211   -0.108893702593    0.000000000000
 H    1.525389367211   -0.135497162593    0.000000000000
 N   -0.345729182789   -1.154266742593    0.000000000000
 H    0.237264017211   -1.997846302593    0.000000000000
 N   -0.098237092789    1.166094747407    0.000000000000
 H   -1.103613382789    1.288208997407    0.000000000000
 H    0.500968937211    1.977370687407    0.000000000000
