6
0 1 
 C    0.405151040602   -0.126596451563    0.000000000000
 H    1.511564570602   -0.219296051563    0.000000000000
 O   -0.352349189398   -1.112270631563    0.000000000000
 N   -0.025416889398    1.159662338437    0.000000000000
 H   -1.032396139398    1.346478468437    0.000000000000
 H    0.641956030602    1.919967198437    0.000000000000
