12
0 1 
 C    1.680404720000   -0.257373180000    0.000000000000
 H    2.788765190000   -0.427131250000    0.000000000000
 O    0.983872120000   -1.279441130000    0.000000000000
 N    1.471971000000    1.066233960000    0.000000000000
 H    0.511750660000    1.436148810000    0.000000000000
 H    2.305816390000    1.638155140000    0.000000000000
 C   -1.680404720000    0.257373180000    0.000000000000
 H   -2.788765190000    0.427131250000    0.000000000000
 O   -0.983872120000    1.279441130000    0.000000000000
 N   -1.471971000000   -1.066233960000    0.000000000000
 H   -0.511750660000   -1.436148810000    0.000000000000
 H   -2.305816390000   -1.638155140000    0.000000000000
