6
0 1 
 C    0.336468591983   -0.117729283007    0.000000000000
 H    1.443589321983   -0.239427053007    0.000000000000
 O   -0.369503698017   -1.143815353007    0.000000000000
 N    0.039006971983    1.185949026993    0.000000000000
 H   -0.946621468017    1.486362026993    0.000000000000
 H    0.819073561983    1.830035946993    0.000000000000
