10
0 1 
 C    2.140057890000   -0.206527950000    0.000000000000
 H    3.239218790000   -0.312603330000    0.000000000000
 O    1.363792290000   -1.155376680000    0.000000000000
 O    1.764381670000    1.086059250000    0.000000000000
 H    0.780116150000    1.116174620000    0.000000000000
 C   -2.140057890000    0.206527950000    0.000000000000
 H   -3.239218790000    0.312603330000    0.000000000000
 O   -1.363792290000    1.155376680000    0.000000000000
 O   -1.764381670000   -1.086059250000    0.000000000000
 H   -0.780116150000   -1.116174620000    0.000000000000
