11
0 1 
 C   -1.733485820783    0.182233548648    0.000000000000
 H   -2.837970960783    0.303641598648    0.000000000000
 O   -1.076532820783    1.225945748648    0.000000000000
 O   -1.387527570783   -1.077014531352    0.000000000000
 H   -0.362045480783   -1.153314671352    0.000000000000
 C    1.745559209217   -0.200192681352    0.000000000000
 H    2.852679939217   -0.321890451352    0.000000000000
 O    1.039586919217   -1.226278751352    0.000000000000
 N    1.448097589217    1.103485628648    0.000000000000
 H    0.462469149217    1.403898628648    0.000000000000
 H    2.228164179217    1.747572548648    0.000000000000
