6
0 1 
 C    0.405626155794   -0.114644620420    0.000000000000
 H    1.518913765794   -0.142863330420    0.000000000000
 O   -0.284732614206   -1.130068010420    0.000000000000
 N   -0.090840814206    1.163926879580    0.000000000000
 H   -1.094763154206    1.306411299580    0.000000000000
 H    0.527215545794    1.964497529580    0.000000000000
