7
0 1 
 C    0.357854812078   -0.079386916694    0.000000000000
 H    1.462607322078   -0.157344036694    0.000000000000
 N   -0.308594717922   -1.203448926694    0.000000000000
 H    0.357889152078   -1.977457956694    0.000000000000
 N   -0.091946407922    1.187655313306    0.000000000000
 H   -1.109119737922    1.370190643306    0.000000000000
 H    0.592966022078    1.929299763306    0.000000000000
