6
0 1 
 C    0.404727604600   -0.118526943617    0.000000000000
 H    1.517248744600   -0.162943643617    0.000000000000
 O   -0.298176265400   -1.126613233617    0.000000000000
 N   -0.077286645400    1.164313566383    0.000000000000
 H   -1.079960115400    1.319181866383    0.000000000000
 H    0.549810554600    1.957830856383    0.000000000000
