10
0 1 
 C    4.997553440000   -0.156422680000    0.000000000000
 H    6.103117280000   -0.191026670000    0.000000000000
 O    4.266340920000   -1.126291000000    0.000000000000
 O    4.578544790000    1.138342460000    0.000000000000
 H    3.604314820000    1.114612190000    0.000000000000
 C   -4.997553440000    0.156422680000    0.000000000000
 H   -6.103117280000    0.191026670000    0.000000000000
 O   -4.266340920000    1.126291000000    0.000000000000
 O   -4.578544790000   -1.138342460000    0.000000000000
 H   -3.604314820000   -1.114612190000    0.000000000000
