7
0 1 
 C    0.374196915986   -0.110718622012    0.000000000000
 H    1.474654325986   -0.209684082012    0.000000000000
 N   -0.401175464014   -1.160803542012    0.000000000000
 H    0.146880665986   -2.020954112012    0.000000000000
 N   -0.013263694014    1.178839377988    0.000000000000
 H   -1.018226314014    1.404504857988    0.000000000000
 H    0.699555575986    1.893844777988    0.000000000000
