6
0 1 
 C    0.414201001842   -0.100892003213    0.000000000000
 H    1.522786071842   -0.167972203213    0.000000000000
 O   -0.280565588158   -1.129933573213    0.000000000000
 N   -0.100298358158    1.156143476787    0.000000000000
 H   -1.119429208158    1.276287746787    0.000000000000
 H    0.511182771842    1.961991606787    0.000000000000
