11
0 1 
 C   -3.165358971505    0.175861338849    0.000000000000
 H   -4.269880301505    0.233075078849    0.000000000000
 O   -2.416656501505    1.134037088849    0.000000000000
 O   -2.771353261505   -1.124147641151    0.000000000000
 H   -1.795877831505   -1.126557241151    0.000000000000
 C    3.226073118495   -0.155212121151    0.000000000000
 H    4.337818678495   -0.212800061151    0.000000000000
 O    2.507235358495   -1.152202611151    0.000000000000
 N    2.762748508495    1.134693988849    0.000000000000
 H    1.762535558495    1.305195928849    0.000000000000
 H    3.401730658495    1.918722728849    0.000000000000
