7
0 1 
 C    0.420076966857   -0.111458763163    0.000000000000
 H    1.524676786857   -0.142131533163    0.000000000000
 N   -0.352336693143   -1.152252353163    0.000000000000
 H    0.225314956857   -1.999463313163    0.000000000000
 N   -0.091588923143    1.166610936837    0.000000000000
 H   -1.096086693143    1.294820946837    0.000000000000
 H    0.512368476857    1.974391106837    0.000000000000
