10
0 1 
 C    2.039928720000   -0.202958670000    0.000000000000
 H    3.138663740000   -0.312275130000    0.000000000000
 O    1.270226400000   -1.160736610000    0.000000000000
 O    1.661622560000    1.082944180000    0.000000000000
 H    0.673341660000    1.115462360000    0.000000000000
 C   -2.039928720000    0.202958670000    0.000000000000
 H   -3.138663740000    0.312275130000    0.000000000000
 O   -1.270226400000    1.160736610000    0.000000000000
 O   -1.661622560000   -1.082944180000    0.000000000000
 H   -0.673341660000   -1.115462360000    0.000000000000
