6
0 1 
 C   -0.416446497064    0.102701135394    0.000000000000
 H   -1.526718607064    0.159560835394    0.000000000000
 O    0.271462932936    1.129462805394    0.000000000000
 N    0.110613862936   -1.156596794606    0.000000000000
 H    1.126818262936   -1.265013924606    0.000000000000
 H   -0.486764057064   -1.972625104606    0.000000000000
