12
0 1 
 C   -2.344527258859    0.168141760480    0.000000000000
 H   -3.446936298859    0.244775720480    0.000000000000
 O   -1.615109858859    1.149620120480    0.000000000000
 O   -1.909078768859   -1.109416919520    0.000000000000
 H   -0.923940938859   -1.088502879520    0.000000000000
 C    2.443917811141   -0.164726979520    0.000000000000
 H    3.544661331141   -0.241245169520    0.000000000000
 N    1.619767191141   -1.174783739520    0.000000000000
 H    2.152889941141   -2.050111669520    0.000000000000
 N    1.968858251141    1.121956650480    0.000000000000
 H    0.963389221141    1.278454000480    0.000000000000
 H    2.596322551141    1.911914890480    0.000000000000
