12
0 1 
 C    2.696084200000   -0.145369980000    0.000000000000
 H    3.806884690000   -0.205263160000    0.000000000000
 O    1.986508720000   -1.153202200000    0.000000000000
 N    2.210355740000    1.132942830000    0.000000000000
 H    1.204193480000    1.282047460000    0.000000000000
 H    2.834038040000    1.929150870000    0.000000000000
 C   -2.696084200000    0.145369980000    0.000000000000
 H   -3.806884690000    0.205263160000    0.000000000000
 O   -1.986508720000    1.153202200000    0.000000000000
 N   -2.210355740000   -1.132942830000    0.000000000000
 H   -1.204193480000   -1.282047460000    0.000000000000
 H   -2.834038040000   -1.929150870000    0.000000000000
