12
0 1 
 C   -4.891193511887    0.151688860642    0.000000000000
 H   -5.996928591887    0.182393140642    0.000000000000
 O   -4.165024801887    1.125403580642    0.000000000000
 O   -4.466018531887   -1.140875289358    0.000000000000
 H   -3.491773321887   -1.112559469358    0.000000000000
 C    5.104955028113   -0.125886319358    0.000000000000
 H    6.209554848113   -0.156559089358    0.000000000000
 N    4.332541368113   -1.166679909358    0.000000000000
 H    4.910193018113   -2.013890869358    0.000000000000
 N    4.593289138113    1.152183380642    0.000000000000
 H    3.588791368113    1.280393390642    0.000000000000
 H    5.197246538113    1.959963550642    0.000000000000
