7
0 1 
 C    0.422961107622   -0.088129401835    0.000000000000
 H    1.524448977622   -0.147470111835    0.000000000000
 N   -0.320517822378   -1.164278131835    0.000000000000
 H    0.287969727622   -1.988174181835    0.000000000000
 N   -0.123663502378    1.160320068165    0.000000000000
 H   -1.143547662378    1.261260538165    0.000000000000
 H    0.466614417622    1.978720168165    0.000000000000
