7
0 1 
 C    0.420421615088   -0.109414871906    0.000000000000
 H    1.525113275088   -0.136699241906    0.000000000000
 N   -0.347255784912   -1.153925861906    0.000000000000
 H    0.234871685088   -1.998102041906    0.000000000000
 N   -0.096657234912    1.166217268094    0.000000000000
 H   -1.101761874912    1.290183098094    0.000000000000
 H    0.503771755088    1.976621218094    0.000000000000
