7
0 1 
 C    0.283561494667   -0.078160282853    0.000000000000
 H    1.394914924667   -0.163737922853    0.000000000000
 N   -0.312362215333   -1.242553902853    0.000000000000
 H    0.409473664667   -1.962425552853    0.000000000000
 N   -0.038557865333    1.220366917147    0.000000000000
 H   -1.059295085333    1.517688457147    0.000000000000
 H    0.754394874667    1.847389867147    0.000000000000
