13
0 1 
 C   -1.731614927810    0.168854239002    0.000000000000
 H   -2.847744067810    0.272298259002    0.000000000000
 O   -1.092032067810    1.233452829002    0.000000000000
 N   -1.409354017810   -1.127038840998    0.000000000000
 H   -0.386634447810   -1.415229200998    0.000000000000
 H   -2.196188147810   -1.764217560998    0.000000000000
 C    1.753449702190   -0.154145230998    0.000000000000
 H    2.859322382190   -0.256638670998    0.000000000000
 N    1.108883342190   -1.289953980998    0.000000000000
 H    1.795134172190   -2.045016190998    0.000000000000
 N    1.400871302190    1.139350679002    0.000000000000
 H    0.401962562190    1.400650239002    0.000000000000
 H    2.156154272190    1.809231449002    0.000000000000
