14
0 1 
 C    1.745734540000   -0.122114510000    0.000000000000
 H    2.855888490000   -0.199770020000    0.000000000000
 N    1.130083450000   -1.275422450000    0.000000000000
 H    1.836655940000   -2.011090100000    0.000000000000
 N    1.382091180000    1.166324330000    0.000000000000
 H    0.355500660000    1.430423910000    0.000000000000
 H    2.146421500000    1.827760970000    0.000000000000
 C   -1.745734540000    0.122114510000    0.000000000000
 H   -2.855888490000    0.199770020000    0.000000000000
 N   -1.130083450000    1.275422450000    0.000000000000
 H   -1.836655940000    2.011090100000    0.000000000000
 N   -1.382091180000   -1.166324330000    0.000000000000
 H   -0.355500660000   -1.430423910000    0.000000000000
 H   -2.146421500000   -1.827760970000    0.000000000000
