11
0 1 
 C   -2.668503658638    0.185148247677    0.000000000000
 H   -3.771811248638    0.257025367677    0.000000000000
 O   -1.912344268638    1.140282957677    0.000000000000
 O   -2.280506788638   -1.113673762323    0.000000000000
 H   -1.303149918638   -1.125500852323    0.000000000000
 C    2.720074451362   -0.165901182323    0.000000000000
 H    3.830203331362   -0.238222692323    0.000000000000
 O    1.989350691362   -1.157300792323    0.000000000000
 N    2.262532221362    1.124135927677    0.000000000000
 H    1.261100581362    1.297398227677    0.000000000000
 H    2.904347331362    1.905886277677    0.000000000000
