7
0 1 
 C    0.422779203881   -0.110050101189    0.000000000000
 H    1.525458843881   -0.164698671189    0.000000000000
 N   -0.360054336119   -1.149612251189    0.000000000000
 H    0.215757273881   -1.998256481189    0.000000000000
 N   -0.086234106119    1.164473438811    0.000000000000
 H   -1.093552806119    1.295605738811    0.000000000000
 H    0.519265073881    1.971210568811    0.000000000000
