7
0 1 
 C    0.420166200180   -0.109896443357    0.000000000000
 H    1.524288910180   -0.150432403357    0.000000000000
 N   -0.351779389820   -1.152752803357    0.000000000000
 H    0.229765890180   -1.997493733357    0.000000000000
 N   -0.092289319820    1.166305876643    0.000000000000
 H   -1.097813869820    1.293584886643    0.000000000000
 H    0.510958300180    1.974548226643    0.000000000000
