13
0 1 
 C   -3.951193908331    0.131807261552    0.000000000000
 H   -5.064214938331    0.167952641552    0.000000000000
 O   -3.257008788331    1.145062951552    0.000000000000
 N   -3.459002658331   -1.147866968448    0.000000000000
 H   -2.455119628331   -1.293133828448    0.000000000000
 H   -4.079500058331   -1.946484938448    0.000000000000
 C    4.044592261669   -0.127855978448    0.000000000000
 H    5.148960151669   -0.163720338448    0.000000000000
 N    3.271140011669   -1.168766928448    0.000000000000
 H    3.849983461669   -2.015263268448    0.000000000000
 N    3.535113461669    1.150175561552    0.000000000000
 H    2.530632811669    1.280826641552    0.000000000000
 H    4.140397771669    1.956976531552    0.000000000000
