7
0 1 
 C    0.427753755006   -0.101920564902    0.000000000000
 H    1.529506335006   -0.158936684902    0.000000000000
 N   -0.346610234994   -1.152473094902    0.000000000000
 H    0.236951305006   -1.995372164902    0.000000000000
 N   -0.102144904994    1.160913225098    0.000000000000
 H   -1.115246864994    1.273510895098    0.000000000000
 H    0.490759645006    1.977078535098    0.000000000000
