11
0 1 
 C   -2.026545030595    0.164959039162    0.000000000000
 H   -3.127460530595    0.257197989162    0.000000000000
 O   -1.316158090595    1.167943289162    0.000000000000
 O   -1.584765870595   -1.096561370838    0.000000000000
 H   -0.589906820595   -1.086716890838    0.000000000000
 C    2.059140519405   -0.177355490838    0.000000000000
 H    3.165554049405   -0.270055090838    0.000000000000
 O    1.301640289405   -1.163029670838    0.000000000000
 N    1.628572589405    1.108903299162    0.000000000000
 H    0.621593339405    1.295719429162    0.000000000000
 H    2.295945509405    1.869208159162    0.000000000000
