12
0 1 
 C   -2.834300259172    0.174125879863    0.000000000000
 H   -3.938366279172    0.236966839863    0.000000000000
 O   -2.091967159172    1.138776069863    0.000000000000
 O   -2.428405829172   -1.120389690137    0.000000000000
 H   -1.451070509172   -1.113328140137    0.000000000000
 C    2.956328550828   -0.155463710137    0.000000000000
 H    4.059022830828   -0.218226590137    0.000000000000
 N    2.152950590828   -1.175869110137    0.000000000000
 H    2.706900650828   -2.038786870137    0.000000000000
 N    2.477313630828    1.133035229863    0.000000000000
 H    1.475408350828    1.289661799863    0.000000000000
 H    3.102221740828    1.924849449863    0.000000000000
