6
0 1 
 C    0.410335974844   -0.124857182218    0.000000000000
 H    1.518702294844   -0.206369792218    0.000000000000
 O   -0.328105455156   -1.115381042218    0.000000000000
 N   -0.052202745156    1.160510487782    0.000000000000
 H   -1.057784505156    1.325048997782    0.000000000000
 H    0.585876954844    1.945341217782    0.000000000000
