7
0 1 
 C   -0.084637908234   -0.426516761735    0.000000000000
 H   -0.044316038234   -1.530847241735    0.000000000000
 N   -1.172172548234    0.278145788265    0.000000000000
 H   -1.981388568234   -0.351609831735    0.000000000000
 N    1.158407941766    0.165887538265    0.000000000000
 H    1.221573011766    1.176518738265    0.000000000000
 H    2.003150931766   -0.385154221735    0.000000000000
