6
0 1 
 C    0.414594882503   -0.109634753858    0.000000000000
 H    1.524003432503   -0.173678003858    0.000000000000
 O   -0.291087187497   -1.125308863858    0.000000000000
 N   -0.090545527497    1.157864526142    0.000000000000
 H   -1.103083617497    1.286843026142    0.000000000000
 H    0.520406122503    1.963930206142    0.000000000000
