10
0 1 
 C    1.890051690000   -0.194179830000    0.000000000000
 H    2.989151910000   -0.307099010000    0.000000000000
 O    1.144278940000   -1.176181870000    0.000000000000
 O    1.520596870000    1.079821810000    0.000000000000
 H    0.522162820000    1.127369650000    0.000000000000
 C   -1.890051690000    0.194179830000    0.000000000000
 H   -2.989151910000    0.307099010000    0.000000000000
 O   -1.144278940000    1.176181870000    0.000000000000
 O   -1.520596870000   -1.079821810000    0.000000000000
 H   -0.522162820000   -1.127369650000    0.000000000000
