7
0 1 
 C    0.430309556455   -0.093557497994    0.000000000000
 H    1.532527966455   -0.144685817994    0.000000000000
 N   -0.326699783545   -1.157705427994    0.000000000000
 H    0.272058906455   -1.989990707994    0.000000000000
 N   -0.122750423545    1.158724962006    0.000000000000
 H   -1.141209573545    1.250786052006    0.000000000000
 H    0.457819136455    1.983697812006    0.000000000000
