7
0 1 
 C    0.336806314319   -0.081340283143    0.000000000000
 H    1.442292664319   -0.169061893143    0.000000000000
 N   -0.316715735681   -1.212438263143    0.000000000000
 H    0.360604664319   -1.976226443143    0.000000000000
 N   -0.070441495681    1.197439956857    0.000000000000
 H   -1.080940135681    1.414528206857    0.000000000000
 H    0.647045904319    1.907656666857    0.000000000000
