11
0 1 
 C   -3.463032888576    0.169942360845    0.000000000000
 H   -4.567950248576    0.220326090845    0.000000000000
 O   -2.719522028576    1.131489290845    0.000000000000
 O   -3.062291968576   -1.128820279155    0.000000000000
 H   -2.087237848576   -1.124033979155    0.000000000000
 C    3.529702001424   -0.148923159155    0.000000000000
 H    4.641951291424   -0.199641219155    0.000000000000
 O    2.817214641424   -1.149758899155    0.000000000000
 N    3.059927791424    1.139141870845    0.000000000000
 H    2.059155061424    1.304177660845    0.000000000000
 H    3.694898641424    1.926412190845    0.000000000000
