7
0 1 
 C    0.420900642734   -0.108718590383    0.000000000000
 H    1.524697582734   -0.153188090383    0.000000000000
 N   -0.350695837266   -1.152954530383    0.000000000000
 H    0.232543942734   -1.996584490383    0.000000000000
 N   -0.093829727266    1.165785299617    0.000000000000
 H   -1.100302207266    1.290810539617    0.000000000000
 H    0.507862732734    1.975180469617    0.000000000000
