14
0 1 
 C    1.896938200000   -0.107827000000    0.000000000000
 H    3.003399900000   -0.170721210000    0.000000000000
 N    1.223549360000   -1.228318380000    0.000000000000
 H    1.885942860000   -2.006360600000    0.000000000000
 N    1.434998890000    1.156075250000    0.000000000000
 H    0.402504440000    1.337935620000    0.000000000000
 H    2.119770840000    1.898886920000    0.000000000000
 C   -1.896938200000    0.107827000000    0.000000000000
 H   -3.003399900000    0.170721210000    0.000000000000
 N   -1.223549360000    1.228318380000    0.000000000000
 H   -1.885942860000    2.006360600000    0.000000000000
 N   -1.434998890000   -1.156075250000    0.000000000000
 H   -0.402504440000   -1.337935620000    0.000000000000
 H   -2.119770840000   -1.898886920000    0.000000000000
