10
0 1 
 C    0.597908659487   -1.477691248083    0.000000000000
 C   -0.421374190513   -2.339841088083    0.000000000000
 H    1.029508789487   -1.106797768083    0.921133510000
 H    1.029508789487   -1.106797768083   -0.921133510000
 H   -0.851310490513   -2.707208938083   -0.923938150000
 H   -0.851310490513   -2.707208938083    0.923938150000
 O    0.518711109487    1.828194181917    0.000000000000
 C   -0.686224430513    1.736831511917    0.000000000000
 H   -1.330836970513    2.631600941917    0.000000000000
 H   -1.189090300513    0.756192371917    0.000000000000
