13
0 1 
 C    0.063743310119   -2.420507024620    0.000000000000
 H   -1.021694859881   -2.342346504620    0.000000000000
 H    0.461318210119   -1.933038064620    0.888283070000
 H    0.461318210119   -1.933038064620   -0.888283070000
 H    0.353635160119   -3.469418074620    0.000000000000
 C   -0.781336619881    1.135472995380    0.000000000000
 H   -1.374654389881    2.051178295380    0.000000000000
 H   -1.063106439881    0.555843055380   -0.880430020000
 C    0.713328000119    1.447270735380    0.000000000000
 H   -1.063106439881    0.555843055380    0.880430020000
 H    1.306417220119    0.531440805380    0.000000000000
 H    0.995329820119    2.025905415380   -0.881003430000
 H    0.995329820119    2.025905415380    0.881003430000
