8
0 1 
 C   -0.601239651185    1.353816653889    0.000000000000
 O    0.593018288815    1.552067103889    0.000000000000
 H   -1.174276091185    1.265128213889    0.935422500000
 H   -1.174276091185    1.265128213889   -0.935422500000
 C    0.602004908815   -1.552311766111    0.000000000000
 O   -0.592386231185   -1.355136386111    0.000000000000
 H    1.009379968815   -2.575269456111    0.000000000000
 H    1.320029208815   -0.716973076111    0.000000000000
