10
0 1 
 C   -0.000000000000    1.819014570000    0.000000000000
 H   -0.512741150000    1.454767430000    0.888093730000
 H   -0.512741150000    1.454767430000   -0.888093730000
 H    1.025482300000    1.454767430000    0.000000000000
 H   -0.000000000000    2.907220720000    0.000000000000
 C    0.000000000000   -1.819014570000    0.000000000000
 H    0.000000000000   -2.907220720000    0.000000000000
 H    0.512741150000   -1.454767430000    0.888093730000
 H    0.512741150000   -1.454767430000   -0.888093730000
 H   -1.025482300000   -1.454767430000    0.000000000000
