12
0 1 
 C   -0.792800162106    1.771752947245    0.249466854012
 C    1.005199837894   -1.349247052755   -0.860533145988
 C    0.174199837894   -0.436247052755    0.016466854012
 O   -0.457800162106   -0.866247052755    0.986466854012
 N    0.106199837894    0.824752947245   -0.381533145988
 H    0.629199837894    1.110752947245   -1.203533145988
 H   -0.550800162106    1.848752947245    1.310466854012
 H    1.506199837894   -0.742247052755   -1.610533145988
 H   -0.659657162106    2.753684947245   -0.228112145988
 H   -1.835227162106    1.442262947245    0.127885854012
 H    1.749919837894   -1.910243052755   -0.276856145988
 H    0.347233837894   -2.050787052755   -1.394314145988
