24
0 1 
 C    0.403708091912   -0.739203154260    3.013757055538
 C    1.274708091912    2.125796845740    0.710757055538
 C    1.138708091912    1.269796845740    1.942757055538
 O    1.511708091912    1.714796845740    3.024757055538
 N    0.578708091912    0.078796845740    1.825757055538
 H    0.284708091912   -0.277203154260    0.919757055538
 H    0.982708091912   -0.319203154260    3.824757055538
 H    0.872708091912    1.586796845740   -0.151242944462
 H   -0.650171908088   -0.735613154260    3.328917055538
 H    0.790038091912   -1.758233154260    2.864327055538
 H    0.707208091912    3.050636845740    0.891327055538
 H    2.341528091912    2.330846845740    0.537977055538
 C   -1.244291908088   -2.719203154260   -1.783242944462
 C   -1.155291908088    0.827796845740   -3.054242944462
 C   -0.892291908088   -1.251203154260   -1.838242944462
 O   -0.181291908088   -0.726203154260   -0.981242944462
 N   -1.406291908088   -0.588203154260   -2.862242944462
 H   -0.803291908088   -3.214203154260   -2.650242944462
 H   -2.328291908088   -2.780203154260   -1.873242944462
 H   -1.975291908088   -1.083203154260   -3.540242944462
 H   -0.907291908088    1.283796845740   -2.102242944462
 H   -0.919191908088   -3.228453154260   -0.864012944462
 H   -0.316601908088    0.985316845740   -3.748352944462
 H   -2.041911908088    1.336416845740   -3.460702944462
