12
0 1 
 C    1.298583729493    1.422791265896   -0.478820101922
 C   -1.047416270507   -1.127208734104    1.143179898078
 C   -0.317416270507   -0.344208734104    0.048179898078
 O   -0.523416270507   -0.579208734104   -1.146820101922
 N    0.550583729493    0.579791265896    0.452179898078
 H    0.701583729493    0.711791265896    1.446179898078
 H    0.759583729493    1.493791265896   -1.422820101922
 H   -1.170416270507   -2.151208734104    0.788179898078
 H    1.371943729493    2.439745265896   -0.065997101922
 H    2.306183729493    1.048456265896   -0.712509101922
 H   -0.479816270507   -1.133992734104    2.085409898078
 H   -2.043256270507   -0.692958734104    1.315589898078
