24
0 1 
 C    0.344057088251    3.551465427231   -0.053915061346
 C   -2.807942911749    1.468465427231    0.293084938654
 C   -0.557942911749    2.380465427231    0.312084938654
 O   -0.074942911749    1.340465427231    0.747084938654
 N   -1.853942911749    2.534465427231    0.066084938654
 H    1.355057088251    3.152465427231   -0.170915061346
 H   -2.195942911749    3.443465427231   -0.230915061346
 H   -2.669942911749    1.092465427231    1.307084938654
 H    0.036947088251    4.008345427231   -1.006255061346
 H    0.355617088251    4.311705427231    0.741004938654
 H   -3.837232911749    1.849575427231    0.220184938654
 H   -2.645072911749    0.619195427231   -0.386775061346
 C    0.175057088251   -2.635534572769    1.464084938654
 C    1.437057088251   -1.278534572769   -1.859915061346
 C    1.234057088251   -2.208534572769   -0.673915061346
 O    1.725057088251   -3.332534572769   -0.661915061346
 N    0.456057088251   -1.773534572769    0.313084938654
 H    0.086057088251   -0.828534572769    0.284084938654
 H    1.116057088251   -3.004534572769    1.881084938654
 H    1.736057088251   -1.903534572769   -2.702915061346
 H   -0.346062911749   -2.064814572769    2.246844938654
 H   -0.399362911749   -3.522354572769    1.158164938654
 H    0.491587088251   -0.774034572769   -2.108055061346
 H    2.241967088251   -0.550924572769   -1.679075061346
