24
0 1 
 C    2.241333978195   -0.022926308015    1.873314538606
 C    1.094333978195   -1.759926308015   -1.322685461394
 C    1.987333978195   -1.406926308015   -0.143685461394
 O    3.097333978195   -1.937926308015   -0.027685461394
 N    1.495333978195   -0.505926308015    0.706314538606
 H    0.584333978195   -0.100926308015    0.516314538606
 H    3.233333978195   -0.473926308015    1.883314538606
 H    0.293333978195   -1.024926308015   -1.382685461394
 H    2.390233978195    1.065893691985    1.825354538606
 H    1.791583978195   -0.270786308015    2.846094538606
 H    1.693923978195   -1.716986308015   -2.243909461394
 H    0.627983978195   -2.746826308015   -1.186487461394
 C   -3.505666021805    0.867073691985    0.902314538606
 C   -0.928666021805    1.740073691985   -1.747685461394
 C   -2.188666021805    0.948073691985    0.148314538606
 O   -1.177666021805    0.389073691985    0.594314538606
 N   -2.173666021805    1.632073691985   -0.987685461394
 H   -4.310666021805    1.176073691985    0.240314538606
 H   -3.010666021805    2.089073691985   -1.333685461394
 H   -0.200666021805    1.033073691985   -1.364685461394
 H   -3.658214021805   -0.172066308015    1.229314538606
 H   -3.480666021805    1.557803691985    1.758044538606
 H   -1.065673021805    1.445253691985   -2.798548461394
 H   -0.450886021805    2.722343691985   -1.617775461394
