12
0 1 
 C   -0.065427936599   -0.522171901074   -1.804611968079
 C   -0.099427936599   -0.242171901074    1.938388031921
 C    0.032572063401    0.135828098926   -0.450611968079
 O    0.418572063401    1.293828098926   -0.316611968079
 N   -0.292427936599   -0.646171901074    0.562388031921
 H   -0.920427936599   -1.180171901074   -1.814611968079
 H   -0.668427936599   -1.570171901074    0.379388031921
 H    0.483572063401    0.676828098926    1.980388031921
 H   -0.180087936599    0.216328098926   -2.611751968079
 H    0.855872063401   -1.114841901074   -1.904351968079
 H   -1.035337936599   -0.070181901074    2.490188031921
 H    0.459972063401   -1.030011901074    2.464108031921
