12
0 1 
 C    1.840821632693    0.198992163927   -0.667175699548
 C   -1.836178367307   -0.531007836073    0.000824300452
 C   -0.417178367307   -0.019007836073    0.208824300452
 O   -0.115178367307    0.610992163927    1.235824300452
 N    0.467821632693   -0.267007836073   -0.761175699548
 H    0.186821632693   -0.792007836073   -1.584175699548
 H    2.254821632693   -0.127007836073    0.286824300452
 H   -2.487178367307   -0.041007836073    0.725824300452
 H    2.455531632693   -0.237467836073   -1.468205699548
 H    1.894811632693    1.297425163927   -0.690205699548
 H   -2.174818367307   -0.288907836073   -1.017365699548
 H   -1.890118367307   -1.618437836073    0.157614300452
