12
0 1 
 C   -1.649511973361    0.682156272868    0.679654281687
 C    1.215488026639   -0.992843727132   -1.202345718313
 C   -0.237511973361    0.255156272868    0.313654281687
 O    0.724488026639    0.620156272868    0.990654281687
 N   -0.092511973361   -0.533843727132   -0.740345718313
 H   -2.345511973361    0.265156272868   -0.048345718313
 H   -0.910511973361   -0.756843727132   -1.299345718313
 H    1.745488026639   -1.459843727132   -0.364345718313
 H   -1.869671973361    0.313966272868    1.692554281687
 H   -1.744971973361    1.777502272868    0.646414281687
 H    1.077888026639   -1.742025727132   -1.995935718313
 H    1.830398026639   -0.161629727132   -1.577805718313
