24
0 1 
 C    1.567915920446    2.620034391105   -1.152680621655
 C    1.774915920446   -0.808965608895   -2.830680621655
 C    1.260915920446    1.171034391105   -1.491680621655
 O    0.371915920446    0.582034391105   -0.875680621655
 N    1.960915920446    0.591034391105   -2.464680621655
 H    1.708915920446    2.638034391105   -0.071680621655
 H    2.646915920446    1.141034391105   -2.964680621655
 H    1.401915920446   -1.351965608895   -1.961680621655
 H    2.456495920446    3.024348391105   -1.659581621655
 H    0.701115920446    3.253324391105   -1.392694621655
 H    1.057385920446   -0.896134608895   -3.659870921655
 H    2.766015920446   -1.202648608895   -3.100386421655
 C   -2.182084079554    0.950034391105    2.017319378345
 C   -0.384084079554   -2.170965608895    0.907319378345
 C   -1.215084079554   -1.257965608895    1.784319378345
 O   -1.847084079554   -1.687965608895    2.754319378345
 N   -1.283084079554    0.003034391105    1.386319378345
 H   -0.760084079554    0.289034391105    0.564319378345
 H   -1.940084079554    1.027034391105    3.078319378345
 H    0.116915920446   -1.563965608895    0.157319378345
 H   -2.048941079554    1.931966391105    1.539740378345
 H   -3.224511079554    0.620544391105    1.895738378345
 H    0.360635920446   -2.731961608895    1.490996378345
 H   -1.042050079554   -2.872505608895    0.373538378345
