12
0 1 
 C   -0.574478710917   -1.619614570213    0.902055917200
 C    0.296521289083    1.245385429787   -1.400944082800
 C    0.160521289083    0.389385429787   -0.168944082800
 O    0.533521289083    0.834385429787    0.913055917200
 N   -0.399478710917   -0.801614570213   -0.285944082800
 H   -0.693478710917   -1.157614570213   -1.191944082800
 H    0.004521289083   -1.199614570213    1.713055917200
 H   -0.105478710917    0.706385429787   -2.262944082800
 H   -1.628358710917   -1.616024570213    1.217215917200
 H   -0.188148710917   -2.638644570213    0.752625917200
 H   -0.270978710917    2.170225429787   -1.220374082800
 H    1.363341289083    1.450435429787   -1.573724082800
