24
0 1 
 C   -1.341436135681   -2.583277153909   -1.822239921569
 C   -1.375436135681   -2.303277153909    1.920760078431
 C   -1.243436135681   -1.925277153909   -0.468239921569
 O   -0.857436135681   -0.767277153909   -0.334239921569
 N   -1.568436135681   -2.707277153909    0.544760078431
 H   -2.196436135681   -3.241277153909   -1.832239921569
 H   -1.944436135681   -3.631277153909    0.361760078431
 H   -0.792436135681   -1.384277153909    1.962760078431
 H   -1.456096135681   -1.844777153909   -2.629379921569
 H   -0.420136135681   -3.175947153909   -1.921979921569
 H   -2.311346135681   -2.131287153909    2.472560078431
 H   -0.816036135681   -3.091117153909    2.446480078431
 C    1.729563864319    1.329722846091   -1.733239921569
 C    0.304563864319    2.333722846091    1.628760078431
 C    1.217563864319    2.260722846091    0.427760078431
 O    2.241563864319    2.945722846091    0.403760078431
 N    0.862563864319    1.462722846091   -0.573239921569
 H    0.035563864319    0.879722846091   -0.510239921569
 H    2.518563864319    2.080722846091   -1.715239921569
 H   -0.409436135681    1.512722846091    1.547760078431
 H    2.211033864319    0.342282846091   -1.789459921569
 H    1.186473864319    1.424612846091   -2.685109921569
 H    0.907293864319    2.256122846091    2.545660078431
 H   -0.234666135681    3.291782846091    1.591990078431
