12
0 1 
 C    1.553698494494   -1.111540631699    0.516202844204
 C   -1.243301505506    1.441459368301    0.100202844204
 C   -0.370301505506    0.224459368301   -0.173797155796
 O   -0.703301505506   -0.589540631699   -1.037797155796
 N    0.718698494494    0.078459368301    0.573202844204
 H    0.937698494494    0.797459368301    1.255202844204
 H    1.535698494494   -1.529540631699   -0.490797155796
 H   -0.792301505506    2.031459368301    0.897202844204
 H    2.592508494494   -0.867115631699    0.782913844204
 H    1.193238494494   -1.907010631699    1.185005844204
 H   -1.341921505506    2.054409368301   -0.807850155796
 H   -2.235591505506    1.085749368301    0.414570844204
