12
0 1 
 C    1.118264449269   -0.937341887802    1.240311516786
 C   -1.663735550731    0.801658112198   -0.671688483214
 C    0.436264449269   -0.168341887802    0.089311516786
 O    0.976264449269    0.044658112198   -1.004688483214
 N   -0.798735550731    0.241658112198    0.358311516786
 H    0.398264449269   -1.681341887802    1.590311516786
 H   -1.191735550731    0.051658112198    1.278311516786
 H   -1.614735550731    0.208658112198   -1.586688483214
 H    2.040544449269   -1.434531987802    0.905346516786
 H    1.297474449269   -0.244170187802    2.075415516786
 H   -2.671725550731    0.820757112198   -0.231707483214
 H   -1.353895550731    1.832513112198   -0.898273483214
