12
0 1 
 C    0.453555665237   -0.731382406745   -1.750867875058
 C   -0.971444334763    0.272617593255    1.611132124942
 C   -0.058444334763    0.199617593255    0.410132124942
 O    0.965555665237    0.884617593255    0.386132124942
 N   -0.413444334763   -0.598382406745   -0.590867875058
 H   -1.240444334763   -1.181382406745   -0.527867875058
 H    1.242555665237    0.019617593255   -1.732867875058
 H   -1.685444334763   -0.548382406745    1.530132124942
 H    0.935025665237   -1.718822406745   -1.807087875058
 H   -0.089534334763   -0.636492406745   -2.702737875058
 H   -0.368714334763    0.195017593255    2.528032124942
 H   -1.510674334763    1.230677593255    1.574362124942
