12
0 1 
 C   -1.468823291080   -0.871767151446   -1.010392421430
 C    0.797176708920    1.092232848554    1.340607578570
 C    0.387176708920    0.182232848554    0.190607578570
 O    1.243176708920   -0.461767151446   -0.425392421430
 N   -0.906823291080    0.097232848554   -0.075392421430
 H   -1.559823291080    0.633232848554    0.490607578570
 H   -0.687823291080   -1.384767151446   -1.572392421430
 H   -0.093823291080    1.529232848554    1.793607578570
 H   -2.058480291080   -1.614137151446   -0.452552421430
 H   -2.122211291080   -0.332957151446   -1.712362421430
 H    1.323464708920    0.453272848554    2.065008578570
 H    1.455434708920    1.898852848554    0.985551578570
