12
0 1 
 C   -1.432179053726    0.333956649982   -1.210321079150
 C    1.827820946274    0.113956649982    0.757678920850
 C   -0.445179053726   -0.064043350018   -0.130321079150
 O   -0.802179053726   -0.809043350018    0.780678920850
 N    0.791820946274    0.419956649982   -0.228321079150
 H   -0.929179053726    1.003956649982   -1.907321079150
 H    1.016820946274    1.075956649982   -0.970321079150
 H    1.528820946274   -0.739043350018    1.368678920850
 H   -1.778879053726   -0.580773350018   -1.713383079150
 H   -2.285389053726    0.863886649982   -0.761756079150
 H    2.775760946274   -0.148763350018    0.265348920850
 H    1.991200946274    0.959186649982    1.442428920850
