12
0 1 
 C   -0.640412435763   -0.985774924233    1.524641856984
 C    1.204587564237    1.103225075767   -1.083358143016
 C   -0.316412435763   -0.272774924233    0.200641856984
 O   -1.105412435763   -0.285774924233   -0.743358143016
 N    0.836587564237    0.396225075767    0.133641856984
 H   -1.378412435763   -1.763774924233    1.321641856984
 H    1.356587564237    0.558225075767    0.990641856984
 H    0.370587564237    1.710225075767   -1.418358143016
 H    0.236857564237   -1.439405924233    2.009014856984
 H   -1.104251435763   -0.254921124233    2.203394856984
 H    2.105356564237    1.718941075767   -0.943682143016
 H    1.383063564237    0.350301645767   -1.865184543016
