12
0 1 
 C    0.255718802342    1.095012868645    1.645989310401
 C   -0.891281197658   -0.641987131355   -1.550010689599
 C    0.001718802342   -0.288987131355   -0.371010689599
 O    1.111718802342   -0.819987131355   -0.255010689599
 N   -0.490281197658    0.612012868645    0.478989310401
 H   -1.401281197658    1.017012868645    0.288989310401
 H    1.247718802342    0.644012868645    1.655989310401
 H   -1.692281197658    0.093012868645   -1.610010689599
 H    0.404618802342    2.183832868645    1.598029310401
 H   -0.194031197658    0.847152868645    2.618769310401
 H   -0.291691197658   -0.599047131355   -2.471234689599
 H   -1.357631197658   -1.628887131355   -1.413812689599
