24
0 1 
 C    0.791191753040   -2.613400344077   -1.144636380815
 C   -2.005808246960   -0.060400344077   -1.560636380815
 C   -1.132808246960   -1.277400344077   -1.834636380815
 O   -1.465808246960   -2.091400344077   -2.698636380815
 N   -0.043808246960   -1.423400344077   -1.087636380815
 H    0.175191753040   -0.704400344077   -0.405636380815
 H    0.773191753040   -3.031400344077   -2.151636380815
 H   -1.554808246960    0.529599655923   -0.763636380815
 H    1.830001753040   -2.368975344077   -0.877925380815
 H    0.430731753040   -3.408870344077   -0.475833380815
 H   -2.104428246960    0.552549655923   -2.468689380815
 H   -2.998098246960   -0.416110344077   -1.246268380815
 C    1.000191753040    0.684599655923    3.355363619185
 C    0.756191753040    2.991599655923    0.350363619185
 C    0.742191753040    1.104599655923    1.913363619185
 O    0.244191753040    0.319599655923    1.100363619185
 N    1.077191753040    2.350599655923    1.615363619185
 H    1.422191753040    1.531599655923    3.900363619185
 H    1.475191753040    2.934599655923    2.347363619185
 H    0.190191753040    2.313599655923   -0.284636380815
 H    0.038321753040    0.418449655923    3.817933619185
 H    1.711121753040   -0.152470344077    3.417713619185
 H    0.147151753040    3.890449655923    0.526833619185
 H    1.694071753040    3.270429655923   -0.152256380815
