24
0 1 
 C    1.875387982512   -2.718745238454   -0.835278144592
 C   -1.923612017488   -2.429745238454   -0.905278144592
 C    0.488387982512   -2.085745238454   -0.900278144592
 O    0.354387982512   -0.859745238454   -0.946278144592
 N   -0.554612017488   -2.910745238454   -0.886278144592
 H    2.576387982512   -1.937745238454   -0.532278144592
 H   -0.390612017488   -3.911745238454   -0.893278144592
 H   -2.079612017488   -1.823745238454   -1.798278144592
 H    1.910087982512   -3.523583238454   -0.086258144592
 H    2.199257982512   -3.100320238454   -1.814818144592
 H   -2.598772017488   -3.297092238454   -0.948468144592
 H   -2.126702017488   -1.805927238454   -0.022328144592
 C   -1.257612017488    2.771254761546   -0.592278144592
 C    0.625387982512    1.126254761546    2.336721855408
 C    0.292387982512    2.116254761546    1.228721855408
 O    0.979387982512    3.117254761546    1.080721855408
 N   -0.771612017488    1.865254761546    0.463721855408
 H   -1.296612017488    1.016254761546    0.633721855408
 H   -2.085612017488    2.255254761546   -1.080278144592
 H    0.477387982512    1.650254761546    3.281721855408
 H   -1.661632017488    3.711831761546   -0.189678144592
 H   -0.522302017488    2.951476761546   -1.390298144592
 H   -0.015892017488    0.232671761546    2.320201855408
 H    1.679067982512    0.812454861546    2.300731855408
