24
0 1 
 C   -0.508201635062   -1.504049253824    2.842482910046
 C   -3.290201635062    0.234950746176    0.930482910046
 C   -1.190201635062   -0.735049253824    1.691482910046
 O   -0.650201635062   -0.522049253824    0.597482910046
 N   -2.425201635062   -0.325049253824    1.960482910046
 H   -1.228201635062   -2.248049253824    3.192482910046
 H   -2.818201635062   -0.515049253824    2.880482910046
 H   -3.241201635062   -0.358049253824    0.015482910046
 H    0.414078364938   -2.001239353824    2.507517910046
 H   -0.328991635062   -0.810877553824    3.677586910046
 H   -4.298191635062    0.254049746176    1.370463910046
 H   -2.980361635062    1.265805746176    0.703897910046
 C    0.453798364938   -0.346049253824   -2.939517089954
 C    2.142798364938    1.373950746176    0.043482910046
 C    1.939798364938    0.791950746176   -1.335517089954
 O    2.880798364938    0.773950746176   -2.104517089954
 N    0.751798364938    0.280950746176   -1.640517089954
 H    0.039798364938    0.231950746176   -0.918517089954
 H    1.320798364938   -0.311049253824   -3.601517089954
 H    1.487798364938    0.841950746176    0.730482910046
 H    0.165528364938   -1.397871453824   -2.796086789954
 H   -0.368621635062    0.226575746176   -3.393089089954
 H    3.191268364938    1.190930746176    0.321346910046
 H    1.878548364938    2.440157746176    0.101574910046
