12
0 1 
 C    1.838837070276   -0.516587259641    0.059686979962
 C   -1.960162929724   -0.227587259641   -0.010313020038
 C    0.451837070276    0.116412740359   -0.005313020038
 O    0.317837070276    1.342412740359   -0.051313020038
 N   -0.591162929724   -0.708587259641    0.008686979962
 H    2.539837070276    0.264412740359    0.362686979962
 H   -0.427162929724   -1.709587259641    0.001686979962
 H   -2.116162929724    0.378412740359   -0.903313020038
 H    1.873537070276   -1.321425259641    0.808706979962
 H    2.162707070276   -0.898162259641   -0.919853020038
 H   -2.635322929724   -1.094934259641   -0.053503020038
 H   -2.163252929724    0.396230740359    0.872636979962
