12
0 1 
 C   -0.262620315111   -0.143514266471   -1.875640386037
 C   -0.457620315111    0.353485733529    1.891359613963
 C    0.162379684889   -0.120514266471   -0.423640386037
 O    1.356379684889   -0.200514266471   -0.136640386037
 N   -0.794620315111    0.075485733529    0.484359613963
 H   -1.343620315111    0.002485733529   -1.937640386037
 H   -1.760620315111    0.133485733529    0.187359613963
 H    0.537379684889    0.800485733529    1.920359613963
 H    0.261559684889    0.676775733529   -2.387850386037
 H   -0.017420315111   -1.117124266471   -2.325050386037
 H   -1.135690315111    1.112045733529    2.309459613963
 H   -0.385230315111   -0.539824266471    2.529129613963
