24
0 1 
 C   -0.830135526283    0.925062613884    3.251493209101
 C    0.939864473717    3.023062613884    0.555493209101
 C   -0.311135526283    1.382062613884    1.867493209101
 O   -0.521135526283    0.692062613884    0.862493209101
 N    0.383864473717    2.517062613884    1.829493209101
 H   -1.132135526283   -0.117937386116    3.166493209101
 H    0.494864473717    3.070062613884    2.677493209101
 H    0.131864473717    3.197062613884   -0.156506790899
 H   -0.029615526283    0.999762613884    4.002213209101
 H   -1.696905526283    1.527662613884    3.560643209101
 H    1.508724473717    3.953612613884    0.698599209101
 H    1.602974473717    2.268782613884    0.106772209101
 C   -0.653135526283   -0.331937386116   -2.927506790899
 C    0.835864473717   -2.417937386116   -0.063506790899
 C    0.214864473717   -2.082937386116   -1.416506790899
 O   -0.020135526283   -3.005937386116   -2.223506790899
 N   -0.045135526283   -0.774937386116   -1.660506790899
 H    0.081864473717   -0.101937386116   -0.910506790899
 H   -1.378135526283   -1.069937386116   -3.270506790899
 H    1.436864473717   -3.322937386116   -0.177506790899
 H   -1.140355526283    0.646072613884   -2.800529790899
 H    0.117224473717   -0.259877386116   -3.709396790899
 H    1.483154473717   -1.596297386116    0.276973209101
 H    0.067594473717   -2.599087386116    0.702616209101
