12
0 1 
 C   -0.768666818329   -0.790053111941    1.585937014094
 C    1.001333181671    1.307946888059   -1.110062985906
 C   -0.249666818329   -0.333053111941    0.201937014094
 O   -0.459666818329   -1.023053111941   -0.803062985906
 N    0.445333181671    0.801946888059    0.163937014094
 H   -1.070666818329   -1.833053111941    1.500937014094
 H    0.556333181671    1.354946888059    1.011937014094
 H    0.193333181671    1.481946888059   -1.822062985906
 H    0.031853181671   -0.715353111941    2.336657014094
 H   -1.635436818329   -0.187453111941    1.895087014094
 H    1.570193181671    2.238496888059   -0.966956985906
 H    1.664443181671    0.553666888059   -1.558783985906
