12
0 1 
 C    1.425829855140    0.041087655627   -1.352921965943
 C   -1.220170144860    0.712087655627    1.263078034057
 C   -0.342170144860   -0.084912344373    0.311078034057
 O   -0.365170144860   -1.317912344373    0.284078034057
 N    0.449829855140    0.637087655627   -0.466921965943
 H    0.381829855140    1.650087655627   -0.434921965943
 H    1.342829855140   -1.041912344373   -1.325921965943
 H   -1.085170144860    1.766087655627    1.027078034057
 H    1.252089855140    0.395747655627   -2.379581965943
 H    2.423509855140    0.334097655627   -0.994071965943
 H   -2.281205144860    0.440977655627    1.159618034057
 H   -0.863056144860    0.562327655627    2.292658034057
