12
0 1 
 C    1.344665982341    1.301619062301   -0.327239818525
 C   -1.807334017659   -0.781380937699    0.019760181475
 C    0.442665982341    0.130619062301    0.038760181475
 O    0.925665982341   -0.909380937699    0.473760181475
 N   -0.853334017659    0.284619062301   -0.207239818525
 H    2.355665982341    0.902619062301   -0.444239818525
 H   -1.195334017659    1.193619062301   -0.504239818525
 H   -1.669334017659   -1.157380937699    1.033760181475
 H    1.037555982341    1.758499062301   -1.279579818525
 H    1.356225982341    2.061859062301    0.467680181475
 H   -2.836624017659   -0.400270937699   -0.053139818525
 H   -1.644464017659   -1.630650937699   -0.660099818525
