12
0 1 
 C   -0.368016520841    0.256081347739    1.925770287480
 C   -0.274016520841    0.165081347739   -1.880229712520
 C    0.140983479159   -0.103918652261   -0.440229712520
 O    1.217983479159   -0.638918652261   -0.173229712520
 N   -0.700016520841    0.304081347739    0.504770287480
 H   -1.595016520841    0.712081347739    0.248770287480
 H    0.711983479159    0.226081347739    2.075770287480
 H   -1.355016520841    0.302081347739   -1.905229712520
 H   -0.778676520841    1.156201347739    2.406550287480
 H   -0.823246520841   -0.644188652261    2.364270287480
 H    0.235553479159    1.076271347739   -2.226739712520
 H   -0.033676520841   -0.690808652261   -2.528069712520
