12
0 1 
 C    0.964100602986   -0.801456175103   -1.510839026835
 C   -0.607899397014    0.189543824897    1.794160973165
 C   -0.252899397014    0.240543824897    0.313160973165
 O   -0.679899397014    1.125543824897   -0.431839026835
 N    0.542100602986   -0.732456175103   -0.115839026835
 H    0.869100602986   -1.445456175103    0.530160973165
 H    1.367100602986    0.171543824897   -1.799839026835
 H   -1.410899397014    0.905543824897    1.975160973165
 H    1.769520602986   -1.539636175103   -1.638879026835
 H    0.129530602986   -0.996526175103   -2.200359026835
 H   -0.948249397014   -0.819396175103    2.070220973165
 H    0.252260602986    0.459553824897    2.424420973165
