12
0 1 
 C    1.503200353749    0.267838816953   -1.119492033103
 C   -1.351799646251    0.470838816953    1.370507966897
 C    0.283200353749   -0.174161183047   -0.334492033103
 O   -0.109799646251   -1.344161183047   -0.386492033103
 N   -0.289799646251    0.760838816953    0.414507966897
 H    1.597200353749    1.344838816953   -0.996492033103
 H    0.101200353749    1.697838816953    0.400507966897
 H   -1.557799646251   -0.597161183047    1.387507966897
 H    2.387780353749   -0.242151183047   -0.710302033103
 H    1.370190353749    0.079058816953   -2.194982033103
 H   -1.025016646251    0.759388816953    2.380437966897
 H   -2.279097646251    0.998038816953    1.101847966897
