24
0 1 
 C   -3.516782245858   -0.728676451111    0.914978929424
 C   -0.651782245858   -2.403676451111   -0.967021070576
 C   -2.104782245858   -1.155676451111    0.548978929424
 O   -1.142782245858   -0.790676451111    1.225978929424
 N   -1.959782245858   -1.944676451111   -0.505021070576
 H   -4.212782245858   -1.145676451111    0.186978929424
 H   -2.777782245858   -2.167676451111   -1.064021070576
 H   -0.121782245858   -2.870676451111   -0.129021070576
 H   -3.736942245858   -1.096866451111    1.927878929424
 H   -3.612242245858    0.366669548889    0.881738929424
 H   -0.789382245858   -3.152858451111   -1.760611070576
 H   -0.036872245858   -1.572462451111   -1.342481070576
 C    0.945217754142    2.570323548889    1.036978929424
 C    2.318217754142   -0.120676451111   -1.304021070576
 C    2.096217754142    1.166323548889   -0.543021070576
 O    2.880217754142    2.088323548889   -0.759021070576
 N    1.114217754142    1.300323548889    0.353978929424
 H    0.507217754142    0.523323548889    0.581978929424
 H    1.049217754142    3.373323548889    0.303978929424
 H    3.330217754142   -0.470676451111   -1.096021070576
 H    2.237217754142    0.080323548889   -2.373021070576
 H   -0.067942245858    2.654753548889    1.456958929424
 H    1.684427754142    2.733393548889    1.835088929424
 H    1.600827754142   -0.894542451111   -0.993411070576
