24
0 1 
 C   -3.074142022896    1.296590348479    0.091474527166
 C   -0.443142022896    1.810590348479    2.756474527166
 C   -1.827142022896    1.040590348479    0.908474527166
 O   -1.086142022896    0.088590348479    0.657474527166
 N   -1.587142022896    1.919590348479    1.867474527166
 H   -3.589142022896    2.169590348479    0.488474527166
 H   -2.278142022896    2.638590348479    2.062474527166
 H    0.247857977104    1.074590348479    2.357474527166
 H   -2.749379022896    1.491600348479   -0.941240472834
 H   -3.776605022896    0.450470348479    0.116613527166
 H    0.110707977104    2.756990348479    2.843548527166
 H   -0.776302022896    1.447670348479    3.739985527166
 C    0.127857977104   -2.106409651521   -2.276525472834
 C    2.393857977104   -0.142409651521    0.074474527166
 C    1.983857977104   -1.052409651521   -1.075525472834
 O    2.839857977104   -1.696409651521   -1.691525472834
 N    0.689857977104   -1.137409651521   -1.341525472834
 H    0.036857977104   -0.601409651521   -0.775525472834
 H    0.908857977104   -2.619409651521   -2.838525472834
 H    1.502857977104    0.294590348479    0.527474527166
 H   -0.461799022896   -2.848779651521   -1.718685472834
 H   -0.525530022896   -1.567599651521   -2.978495472834
 H    2.920145977104   -0.781369651521    0.798875527166
 H    3.052115977104    0.664210348479   -0.280581472834
