24
0 1 
 C    0.000000000000    1.391500000000   -2.175000000000
 C    1.205074349366    0.695750000000   -2.175000000000
 C    1.205074349366   -0.695750000000   -2.175000000000
 C    0.000000000000   -1.391500000000   -2.175000000000
 C   -1.205074349366   -0.695750000000   -2.175000000000
 C   -1.205074349366    0.695750000000   -2.175000000000
 H    0.000000000000    2.471500000000   -2.175000000000
 H    2.140381785453    1.235750000000   -2.175000000000
 H    2.140381785453   -1.235750000000   -2.175000000000
 H    0.000000000000   -2.471500000000   -2.175000000000
 H   -2.140381785453   -1.235750000000   -2.175000000000
 H   -2.140381785453    1.235750000000   -2.175000000000
 C    0.000000000000    0.000000000000    0.783500000000
 C   -1.205074349366    0.000000000000    1.479250000000
 C   -1.205074349366    0.000000000000    2.870750000000
 C    0.000000000000    0.000000000000    3.566500000000
 C    1.205074349366    0.000000000000    2.870750000000
 C    1.205074349366    0.000000000000    1.479250000000
 H    0.000000000000    0.000000000000   -0.296500000000
 H   -2.140381785453    0.000000000000    0.939250000000
 H   -2.140381785453    0.000000000000    3.410750000000
 H    0.000000000000    0.000000000000    4.646500000000
 H    2.140381785453    0.000000000000    3.410750000000
 H    2.140381785453    0.000000000000    0.939250000000
