 10
#Generated by chemFileConvert.py
  C       -0.1112190     1.9099710     0.0000000
  O        1.1309010     1.4773510     0.0000000
  O       -1.1170560     1.2208700     0.0000000
  H       -0.1511860     3.0005020     0.0000000
  H        1.1279650     0.4833670     0.0000000
  C        0.1112190    -1.9099710     0.0000000
  O       -1.1309010    -1.4773490     0.0000000
  O        1.1170580    -1.2208730     0.0000000
  H        0.1511820    -3.0005020     0.0000000
  H       -1.1279620    -0.4833660     0.0000000
