  7
 #Generated by chemFileConvert.py
  N            1.8823440     0.0893080     0.0041760
  H            2.1777080    -0.4633300    -0.7906150
  H            2.1924240    -0.4214130     0.8210360
  C            2.5416790     1.3976720    -0.0360660
  H            2.2311370     1.9793970     0.8284500
  H            3.6329880     1.3583770    -0.0450210
  H            2.2149670     1.9335900    -0.9238890
