  8
 #Generated by chemFileConvert.py
  C           -1.0617090     1.2971410     0.2920600
  O           -0.3581610     2.2704590     0.5318130
  O           -0.5893040     0.0949180     0.0037890
  H            0.4044360     0.1277230     0.0184120
  C           -2.5584280     1.3425500     0.2962570
  H           -2.8959980     2.3474640     0.5183160
  H           -2.9328890     1.0223900    -0.6729960
  H           -2.9372120     0.6449100     1.0395570
