  6
 #Generated by chemFileConvert.py
  C           -0.1548120     0.5247350     3.0550600
  H           -0.1596940     1.2669090     3.8409420
  H           -0.8033450     0.6925040     2.2063760
  C            0.6136980    -0.5622270     3.1248690
  H            1.2590030    -0.7340520     3.9749970
  H            0.6085860    -1.2974270     2.3325600
