 17
 #Generated by chemFileConvert.py
  C           -0.0004620     0.0447590     4.5653630
  C            0.0006090    -0.0953720     6.0850960
  H           -0.8864270     0.3687040     6.5184660
  H            0.0098610    -1.1461520     6.3781060
  H            0.8792700     0.3842930     6.5187390
  C           -1.2399180    -0.6368930     3.9914650
  H           -1.2632170    -0.5479360     2.9046360
  H           -1.2520030    -1.6981690     4.2444780
  H           -2.1508610    -0.1846020     4.3865500
  C            1.2521430    -0.6127820     3.9918930
  H            1.2734690    -0.5244960     2.9049220
  H            1.2852730    -1.6733430     4.2459850
  H            2.1539550    -0.1421380     4.3863140
  C           -0.0147100     1.5245520     4.1907420
  H            0.8630560     2.0351390     4.5896970
  H           -0.0152350     1.6510070     3.1070900
  H           -0.9028160     2.0178850     4.5885300
