  5
 #Generated by chemFileConvert.py
  F            0.9399380     0.5575980     1.4621490
  F           -0.9418800    -0.5814750     1.4577250
  C           -0.0070560    -0.0049890     2.2532210
  H           -0.4811500     0.7759750     2.8402070
  H            0.4579030    -0.7754750     2.8609930
