9
0 1 
 C    0.539362663551   -0.124834940484   -0.068555901474
 C   -0.150637336449    0.983165059516   -0.768555901474
 O   -0.314637336449   -0.846834940484    0.762444098526
 H    0.500362663551   -0.446834940484   -1.089555901474
 H    1.503362663551    0.172165059516    0.344444098526
 H    0.490362663551    1.370165059516   -1.559555901474
 H   -0.741637336449   -0.309834940484    1.466444098526
 H   -0.309308336449    1.799405059516   -0.048433901474
 H   -1.078105336449    0.634830059516   -1.246536801474
