 13
#Generated by chemFileConvert.py
  N       -1.4211120    -0.3538800     0.0061300
  C       -2.1132920     0.7884080     0.1657540
  C       -3.5215960     0.8000890     0.1348510
  C       -4.2063000    -0.3825080    -0.0633900
  C       -3.4877460    -1.5684820    -0.2296480
  C       -2.1067020    -1.4926750    -0.1869300
  H       -4.0515880     1.7332540     0.2682900
  H       -5.2874460    -0.3828820    -0.0901860
  H       -3.9807450    -2.5152850    -0.3885450
  H       -1.5052630    -2.3849510    -0.3161830
  N       -1.3970640     1.9247230     0.4097170
  H       -1.8816800     2.7928760     0.2656430
  H       -0.4129250     1.9263330     0.1368150
