 10
#Generated by chemFileConvert.py
  C        0.3046860     2.0848330    -1.1300600
  C       -0.8762660     1.3460470    -1.1306390
  N       -1.4870270     0.9684680     0.0000000
  C       -0.8762660     1.3460470     1.1306390
  C        0.3046860     2.0848330     1.1300600
  N        0.9130410     2.4672640     0.0000000
  H        0.7725940     2.3760830    -2.0619750
  H       -1.3386160     1.0463630    -2.0623050
  H       -1.3386160     1.0463630     2.0623050
  H        0.7725940     2.3760830     2.0619750
