 9 
#Generated by chemFileConvert.py
  C       -0.7603240     1.1581850    -0.8048750
  C       -1.5806350     2.2029420    -1.5345130
  O       -1.5698890     0.1522880    -0.2068050
  H       -0.1139920     0.6297320    -1.5021160
  H       -0.1160270     1.6325950    -0.0594420
  H       -0.9341130     2.9318670    -2.0218320
  H       -2.1594770     0.5932240     0.4113690
  H       -2.2260810     2.7412630    -0.8400540
  H       -2.2076890     1.7321600    -2.2883230
