28
0 1 
 C   26.344000000000   29.050000000000    8.645000000000
 H   25.879000000000   29.504000000000    9.522000000000
 C   25.491000000000   27.771000000000    8.287000000000
 H   25.945000000000   27.245000000000    7.447000000000
 H   25.448000000000   27.099000000000    9.144000000000
 H   24.475000000000   28.063000000000    8.019000000000
 C   27.810000000000   28.748000000000    8.999000000000
 H   28.241000000000   28.093000000000    8.242000000000
 H   28.394000000000   29.667000000000    9.015000000000
 C   27.967000000000   28.087000000000   10.417000000000
 H   27.385000000000   27.167000000000   10.473000000000
 H   29.013000000000   27.846000000000   10.595000000000
 H   27.625000000000   28.782000000000   11.183000000000
 H   26.265720000000   29.773940000000    7.820512000000
 C   26.310000000000   30.594000000000   14.967000000000
 H   27.244000000000   31.135000000000   14.803000000000
 H   26.368000000000   30.156000000000   15.965000000000
 C   26.290000000000   29.480000000000   13.960000000000
 H   26.459000000000   29.906000000000   12.971000000000
 C   27.393000000000   28.442000000000   14.229000000000
 H   27.257000000000   27.992000000000   15.212000000000
 H   27.352000000000   27.657000000000   13.474000000000
 H   28.371000000000   28.921000000000   14.181000000000
 C   24.942000000000   28.807000000000   13.952000000000
 H   24.133000000000   29.498000000000   13.737000000000
 H   24.937000000000   28.054000000000   13.165000000000
 H   24.769000000000   28.313000000000   14.905000000000
 H   25.481890000000   31.317980000000   14.976270000000
