13
0 1 
 C   27.331000000000   29.317000000000   20.364000000000
 O   27.101000000000   28.346000000000   21.097000000000
 N   26.436000000000   30.232000000000   20.004000000000
 H   26.749000000000   31.024000000000   19.452000000000
 C   25.034000000000   30.170000000000   20.401000000000
 H   24.865000000000   29.269000000000   20.985000000000
 C   24.101000000000   30.149000000000   19.196000000000
 O   24.196000000000   30.948000000000   18.287000000000
 N   23.141000000000   29.187000000000   19.241000000000
 H   23.123000000000   28.529000000000   20.017000000000
 H   22.382230000000   29.093560000000   18.450090000000
 H   24.760120000000   31.040880000000   21.014640000000
 H   28.363770000000   29.501760000000   20.033460000000
