26
0 1 
 C   21.110000000000   24.111000000000   10.173000000000
 O   21.841000000000   23.198000000000    9.686000000000
 N   20.291000000000   24.875000000000    9.507000000000
 H   19.702000000000   25.510000000000   10.033000000000
 C   20.081000000000   24.773000000000    8.033000000000
 H   20.519000000000   23.844000000000    7.665000000000
 C   20.822000000000   25.914000000000    7.332000000000
 O   21.323000000000   26.830000000000    8.008000000000
 N   20.924000000000   25.862000000000    6.006000000000
 H   20.502000000000   25.078000000000    5.521000000000
 H   19.004050000000   24.746110000000    7.810633000000
 H   21.480590000000   26.610970000000    5.423553000000
 H   21.163330000000   24.220540000000   11.266230000000
 C   21.466000000000   30.953000000000    7.261000000000
 O   21.066000000000   32.112000000000    7.533000000000
 N   21.674000000000   30.034000000000    8.191000000000
 H   21.986000000000   29.123000000000    7.887000000000
 C   21.419000000000   30.253000000000    9.620000000000
 H   20.418000000000   30.649000000000    9.793000000000
 C   21.637000000000   28.923000000000   10.353000000000
 H   22.580000000000   28.468000000000   10.043000000000
 H   21.669000000000   29.098000000000   11.428000000000
 O   20.544000000000   28.047000000000   10.059000000000
 H   20.792000000000   27.597000000000    9.215000000000
 H   22.190350000000   30.946150000000    9.986835000000
 H   21.789330000000   30.667060000000    6.249220000000
