9
0 1 
 C   40.269000000000   30.508000000000   14.115000000000
 H   40.236000000000   31.406000000000   14.731000000000
 C   41.092000000000   30.808000000000   12.851000000000
 O   41.828000000000   31.808000000000   12.681000000000
 N   41.001000000000   29.878000000000   11.931000000000
 H   40.442000000000   29.048000000000   12.087000000000
 H   41.533500000000   29.984950000000   10.974440000000
 H   40.793930000000   29.707250000000   14.656530000000
 H   39.250560000000   30.215550000000   13.819610000000
