28
0 1 
 C   35.715000000000   26.203000000000   17.172000000000
 H   35.982000000000   25.146000000000   17.194000000000
 H   36.483000000000   26.785000000000   17.680000000000
 C   34.343000000000   26.445000000000   17.898000000000
 H   34.052000000000   27.490000000000   17.825000000000
 H   33.556000000000   25.841000000000   17.455000000000
 C   34.509000000000   26.077000000000   19.360000000000
 H   34.787000000000   25.022000000000   19.430000000000
 H   35.306000000000   26.680000000000   19.800000000000
 C   33.206000000000   26.311000000000   20.122000000000
 H   32.920000000000   27.363000000000   20.056000000000
 H   32.425000000000   25.682000000000   19.686000000000
 H   35.629400000000   26.571300000000   16.139030000000
 H   33.388580000000   26.016970000000   21.166130000000
 C   29.151000000000   28.655000000000   18.755000000000
 H   29.215000000000   27.648000000000   19.172000000000
 H   28.322000000000   28.637000000000   18.045000000000
 C   30.416000000000   28.912000000000   17.980000000000
 H   31.242000000000   29.080000000000   18.671000000000
 C   30.738000000000   27.693000000000   17.122000000000
 H   29.921000000000   27.482000000000   16.432000000000
 H   31.647000000000   27.884000000000   16.550000000000
 H   30.912000000000   26.825000000000   17.756000000000
 C   30.205000000000   30.168000000000   17.129000000000
 H   30.017000000000   31.034000000000   17.761000000000
 H   31.110000000000   30.356000000000   16.551000000000
 H   29.373000000000   30.026000000000   16.440000000000
 H   28.870000000000   29.318130000000   19.586440000000
