11
1 1 
 C   34.509000000000   26.077000000000   19.360000000000
 H   34.787000000000   25.022000000000   19.430000000000
 H   35.306000000000   26.680000000000   19.800000000000
 C   33.206000000000   26.311000000000   20.122000000000
 H   32.920000000000   27.363000000000   20.056000000000
 H   32.425000000000   25.682000000000   19.686000000000
 N   33.455000000000   25.910000000000   21.546000000000
 H   34.179000000000   26.474000000000   21.962000000000
 H   32.614000000000   25.985000000000   22.091000000000
 H   33.744000000000   24.923000000000   21.545000000000
 H   34.388610000000   26.343890000000   18.299680000000
