9
0 1 
 C   40.675000000000   35.527000000000   13.200000000000
 O   40.814000000000   36.528000000000   13.911000000000
 N   41.317000000000   34.393000000000   13.432000000000
 H   41.204000000000   33.614000000000   12.789000000000
 C   42.345000000000   34.269000000000   14.431000000000
 H   42.983000000000   33.429000000000   14.158000000000
 H   42.969000000000   35.163000000000   14.392000000000
 H   42.050310000000   34.125380000000   15.481010000000
 H   39.945760000000   35.541600000000   12.376590000000
