26
0 1 
 C   27.151000000000   33.362000000000   10.650000000000
 O   26.350000000000   32.778000000000   11.395000000000
 N   28.260000000000   33.943000000000   11.096000000000
 H   28.901000000000   34.360000000000   10.429000000000
 C   28.605000000000   33.965000000000   12.503000000000
 H   27.847000000000   33.457000000000   13.097000000000
 C   28.638000000000   35.461000000000   12.900000000000
 O   29.522000000000   36.103000000000   12.320000000000
 N   27.751000000000   35.867000000000   13.740000000000
 H   27.107000000000   35.195000000000   14.151000000000
 H   26.873700000000   33.416140000000    9.586903000000
 H   29.577220000000   33.501080000000   12.725650000000
 H   27.707120000000   36.925880000000   14.034700000000
 C   30.494000000000   38.261000000000    9.729000000000
 O   30.849000000000   38.850000000000    8.706000000000
 N   30.795000000000   37.015000000000   10.095000000000
 H   30.443000000000   36.586000000000   10.942000000000
 C   31.720000000000   36.289000000000    9.176000000000
 H   32.071000000000   36.955000000000    8.389000000000
 C   30.955000000000   35.211000000000    8.459000000000
 O   30.025000000000   34.618000000000    9.040000000000
 N   31.244000000000   34.986000000000    7.197000000000
 H   31.951000000000   35.496000000000    6.692000000000
 H   30.699610000000   34.174210000000    6.692391000000
 H   32.631980000000   35.998600000000    9.718181000000
 H   29.808860000000   38.807240000000   10.393990000000
