14
0 1 
 C   22.650000000000   24.516000000000   12.172000000000
 H   23.215000000000   23.598000000000   12.003000000000
 C   23.376000000000   25.645000000000   11.409000000000
 H   22.954000000000   26.611000000000   11.687000000000
 H   24.444000000000   25.631000000000   11.623000000000
 H   23.277000000000   25.511000000000   10.333000000000
 C   22.662000000000   24.819000000000   13.699000000000
 H   22.117000000000   25.741000000000   13.891000000000
 H   22.184000000000   24.007000000000   14.242000000000
 C   24.123000000000   24.981000000000   14.195000000000
 H   24.588000000000   25.879000000000   13.799000000000
 H   24.114000000000   25.061000000000   15.282000000000
 H   24.702000000000   24.100000000000   13.921000000000
 H   21.618800000000   24.338040000000   11.832960000000
