9
0 1 
 C   34.738000000000   30.875000000000   21.473000000000
 H   34.456000000000   31.916000000000   21.318000000000
 C   33.589000000000   30.189000000000   22.181000000000
 O   33.580000000000   29.009000000000   22.499000000000
 N   32.478000000000   30.917000000000   22.269000000000
 H   32.500000000000   31.907000000000   22.035000000000
 H   31.538740000000   30.484850000000   22.644560000000
 H   34.835870000000   30.422530000000   20.475150000000
 H   35.700200000000   30.863560000000   22.005950000000
