9
0 1 
 C   31.398000000000   19.064000000000   14.286000000000
 H   30.436000000000   18.719000000000   14.622000000000
 C   31.593000000000   20.553000000000   14.655000000000
 O   32.159000000000   21.311000000000   13.861000000000
 N   31.113000000000   20.863000000000   15.860000000000
 H   30.636000000000   20.148000000000   16.405000000000
 H   31.244870000000   21.871200000000   16.279710000000
 H   32.165550000000   18.452910000000   14.783430000000
 H   31.483320000000   18.966500000000   13.193660000000
