9
0 1 
 C   30.225000000000   38.643000000000   16.662000000000
 H   30.179000000000   37.771000000000   17.313000000000
 C   29.664000000000   39.839000000000   17.434000000000
 O   28.850000000000   40.565000000000   16.859000000000
 N   30.132000000000   40.069000000000   18.642000000000
 H   30.855000000000   39.482000000000   19.022000000000
 H   29.627320000000   38.483670000000   15.752390000000
 H   31.282870000000   38.807360000000   16.409200000000
 H   29.741810000000   40.894710000000   19.255150000000
