28
0 1 
 C   30.520000000000   22.300000000000   17.764000000000
 H   30.863000000000   21.515000000000   18.413000000000
 C   30.832000000000   23.699000000000   18.358000000000
 H   30.685000000000   24.476000000000   17.610000000000
 H   30.172000000000   23.874000000000   19.207000000000
 H   31.859000000000   23.726000000000   18.727000000000
 C   29.006000000000   22.043000000000   17.442000000000
 H   28.831000000000   21.016000000000   17.160000000000
 H   28.443000000000   22.207000000000   18.360000000000
 H   28.795000000000   22.680000000000   15.384000000000
 H   27.326000000000   22.805000000000   16.351000000000
 H   28.618000000000   23.995000000000   16.580000000000
 C   28.407000000000   22.948000000000   16.366000000000
 H   31.063730000000   22.229910000000   16.810350000000
 C   26.084000000000   21.888000000000   11.833000000000
 H   26.170000000000   21.168000000000   11.029000000000
 H   25.313000000000   22.606000000000   11.554000000000
 C   27.426000000000   22.616000000000   11.902000000000
 H   28.230000000000   21.920000000000   12.129000000000
 C   27.718000000000   23.341000000000   10.578000000000
 H   26.935000000000   24.062000000000   10.350000000000
 H   28.683000000000   23.842000000000   10.643000000000
 H   27.773000000000   22.608000000000    9.776000000000
 C   27.380000000000   23.721000000000   12.955000000000
 H   27.051000000000   23.309000000000   13.905000000000
 H   28.369000000000   24.127000000000   13.111000000000
 H   26.698000000000   24.514000000000   12.653000000000
 H   25.734770000000   21.332790000000   12.716050000000
