26
0 1 
 N   19.810000000000   29.378000000000   18.578000000000
 H   19.931000000000   30.108000000000   17.886000000000
 O   20.821000000000   27.734000000000   19.749000000000
 C   20.835000000000   28.629000000000   18.904000000000
 C   22.126000000000   29.062000000000   18.183000000000
 H   21.966000000000   30.031000000000   17.708000000000
 N   23.141000000000   29.187000000000   19.241000000000
 H   23.123000000000   28.529000000000   20.017000000000
 C   24.101000000000   30.149000000000   19.196000000000
 O   24.196000000000   30.948000000000   18.287000000000
 H   24.774370000000   30.164160000000   20.065680000000
 H   18.791320000000   29.202880000000   18.954320000000
 H   22.392980000000   28.332890000000   17.403830000000
 N   23.880000000000   26.727000000000   23.851000000000
 H   23.552000000000   26.164000000000   24.620000000000
 O   23.383000000000   27.627000000000   21.870000000000
 C   23.046000000000   27.087000000000   22.913000000000
 C   21.550000000000   26.796000000000   23.133000000000
 H   21.355000000000   26.660000000000   24.198000000000
 N   20.801000000000   27.931000000000   22.578000000000
 H   20.819000000000   28.069000000000   21.573000000000
 C   20.083000000000   28.729000000000   23.321000000000
 O   19.991000000000   28.584000000000   24.561000000000
 H   19.583460000000   29.579820000000   22.834610000000
 H   21.325440000000   25.864930000000   22.592000000000
 H   24.963970000000   26.833990000000   23.697520000000
