14
0 1 
 C   38.693000000000   34.106000000000   17.595000000000
 H   38.151000000000   33.411000000000   16.950000000000
 C   38.146000000000   33.932000000000   19.027000000000
 H   38.621000000000   34.647000000000   19.698000000000
 H   37.073000000000   34.080000000000   19.020000000000
 H   38.337000000000   32.923000000000   19.390000000000
 C   38.471000000000   35.546000000000   17.045000000000
 H   38.776000000000   36.283000000000   17.789000000000
 H   39.030000000000   35.735000000000   16.131000000000
 C   36.958000000000   35.746000000000   16.680000000000
 H   36.344000000000   35.711000000000   17.578000000000
 H   36.831000000000   36.722000000000   16.212000000000
 H   36.635000000000   34.976000000000   15.978000000000
 H   39.757470000000   33.835190000000   17.535280000000
