15
0 1 
 C   22.494000000000   28.057000000000   17.109000000000
 H   23.431000000000   28.368000000000   16.652000000000
 H   22.654000000000   27.097000000000   17.579000000000
 C   21.447000000000   27.869000000000   16.026000000000
 C   21.325000000000   28.813000000000   15.005000000000
 H   21.969000000000   29.678000000000   14.997000000000
 C   20.369000000000   28.648000000000   14.001000000000
 H   20.257000000000   29.367000000000   13.204000000000
 C   19.593000000000   27.465000000000   14.021000000000
 H   18.874000000000   27.293000000000   13.231000000000
 C   19.677000000000   26.539000000000   15.051000000000
 H   19.057000000000   25.651000000000   15.039000000000
 C   20.638000000000   26.735000000000   16.053000000000
 H   20.746000000000   25.999000000000   16.838000000000
 H   22.227020000000   28.786110000000   17.888170000000
