9
0 1 
 C   38.794000000000   25.761000000000   13.880000000000
 H   39.533000000000   26.227000000000   14.535000000000
 C   38.728000000000   26.591000000000   12.611000000000
 O   39.704000000000   27.346000000000   12.277000000000
 N   37.633000000000   26.543000000000   11.867000000000
 H   36.939000000000   25.831000000000   12.081000000000
 H   37.512390000000   27.174350000000   10.974330000000
 H   39.144810000000   24.742860000000   13.655650000000
 H   37.823590000000   25.747510000000   14.397800000000
