9
0 1 
 C   31.593000000000   20.553000000000   14.655000000000
 O   32.159000000000   21.311000000000   13.861000000000
 N   31.113000000000   20.863000000000   15.860000000000
 H   30.636000000000   20.148000000000   16.405000000000
 C   31.288000000000   22.201000000000   16.417000000000
 H   30.905000000000   22.936000000000   15.712000000000
 H   31.454290000000   19.493820000000   14.392520000000
 H   32.357810000000   22.429630000000   16.532030000000
 H   30.744270000000   22.271090000000   17.370650000000
