13
0 1 
 N   19.810000000000   29.378000000000   18.578000000000
 H   19.931000000000   30.108000000000   17.886000000000
 O   20.821000000000   27.734000000000   19.749000000000
 C   20.835000000000   28.629000000000   18.904000000000
 C   22.126000000000   29.062000000000   18.183000000000
 H   21.966000000000   30.031000000000   17.708000000000
 N   23.141000000000   29.187000000000   19.241000000000
 H   23.123000000000   28.529000000000   20.017000000000
 C   24.101000000000   30.149000000000   19.196000000000
 O   24.196000000000   30.948000000000   18.287000000000
 H   24.774370000000   30.164160000000   20.065680000000
 H   18.791320000000   29.202880000000   18.954320000000
 H   22.392980000000   28.332890000000   17.403830000000
