25
0 1 
 C   29.903000000000   24.590000000000    7.665000000000
 H   29.900000000000   23.663000000000    8.237000000000
 C   30.862000000000   25.496000000000    8.389000000000
 H   30.895000000000   26.467000000000    7.902000000000
 H   30.547000000000   25.617000000000    9.425000000000
 H   31.853000000000   25.045000000000    8.370000000000
 C   28.476000000000   25.135000000000    7.705000000000
 H   27.762000000000   24.367000000000    7.412000000000
 H   28.235000000000   25.443000000000    8.721000000000
 H   28.371000000000   26.000000000000    7.051000000000
 H   30.174450000000   24.346750000000    6.627144000000
 C   26.084000000000   21.888000000000   11.833000000000
 H   26.170000000000   21.168000000000   11.029000000000
 H   25.313000000000   22.606000000000   11.554000000000
 C   27.426000000000   22.616000000000   11.902000000000
 H   28.230000000000   21.920000000000   12.129000000000
 C   27.718000000000   23.341000000000   10.578000000000
 H   26.935000000000   24.062000000000   10.350000000000
 H   28.683000000000   23.842000000000   10.643000000000
 H   27.773000000000   22.608000000000    9.776000000000
 C   27.380000000000   23.721000000000   12.955000000000
 H   27.051000000000   23.309000000000   13.905000000000
 H   28.369000000000   24.127000000000   13.111000000000
 H   26.698000000000   24.514000000000   12.653000000000
 H   25.734770000000   21.332790000000   12.716050000000
