18
0 1 
 C   22.924000000000   18.583000000000   12.025000000000
 H   22.278000000000   19.280000000000   11.494000000000
 C   22.229000000000   18.244000000000   13.325000000000
 O   20.963000000000   18.253000000000   13.395000000000
 N   22.997000000000   17.978000000000   14.366000000000
 H   24.005000000000   17.928000000000   14.255000000000
 H   22.568740000000   17.726520000000   15.347510000000
 H   23.020730000000   17.682350000000   11.400920000000
 H   23.899260000000   19.064700000000   12.188780000000
 C   20.142000000000   21.590000000000   15.149000000000
 O   19.499000000000   22.645000000000   15.321000000000
 N   19.993000000000   20.884000000000   14.049000000000
 H   20.459000000000   19.985000000000   13.959000000000
 C   19.065000000000   21.352000000000   12.999000000000
 H   19.219000000000   20.677000000000   12.159000000000
 H   18.016100000000   21.302360000000   13.326650000000
 H   20.823570000000   21.269220000000   15.950590000000
 H   19.337160000000   22.357640000000   12.645980000000
