18
0 1 
 C   33.533000000000   25.097000000000   12.978000000000
 H   33.628000000000   25.293000000000   11.911000000000
 C   34.441000000000   26.099000000000   13.684000000000
 O   34.883000000000   27.090000000000   13.093000000000
 N   34.734000000000   25.822000000000   14.949000000000
 H   34.360000000000   24.976000000000   15.377000000000
 H   35.379190000000   26.490390000000   15.538050000000
 H   33.890540000000   24.077160000000   13.183170000000
 H   32.474750000000   25.211950000000   13.255310000000
 C   37.441000000000   28.882000000000   11.052000000000
 O   38.020000000000   29.772000000000   10.382000000000
 N   36.811000000000   29.170000000000   12.192000000000
 H   36.331000000000   28.429000000000   12.692000000000
 C   36.731000000000   30.570000000000   12.645000000000
 H   36.443000000000   31.212000000000   11.812000000000
 H   37.462430000000   27.816960000000   10.777710000000
 H   37.746360000000   30.864510000000   12.948820000000
 H   36.010140000000   30.715160000000   13.463100000000
