9
0 1 
 C   30.075000000000   42.538000000000   18.984000000000
 O   29.586000000000   43.570000000000   19.483000000000
 N   30.991000000000   42.571000000000   17.998000000000
 H   31.378000000000   41.738000000000   17.572000000000
 C   31.422000000000   43.940000000000   17.553000000000
 H   31.183000000000   44.701000000000   18.293000000000
 H   29.735290000000   41.552260000000   19.334600000000
 H   32.519260000000   43.924500000000   17.476890000000
 H   30.931990000000   44.241940000000   16.615600000000
