20
0 1 
 C   25.353000000000   24.860000000000    5.134000000000
 H   26.271000000000   24.325000000000    5.365000000000
 H   25.400000000000   25.873000000000    5.533000000000
 S   23.930000000000   23.959000000000    5.904000000000
 C   24.447000000000   23.984000000000    7.620000000000
 H   24.441000000000   25.008000000000    7.993000000000
 H   23.766000000000   23.377000000000    8.211000000000
 H   25.451000000000   23.568000000000    7.707000000000
 H   25.176800000000   24.874620000000    4.048302000000
 C   29.903000000000   24.590000000000    7.665000000000
 H   29.900000000000   23.663000000000    8.237000000000
 C   30.862000000000   25.496000000000    8.389000000000
 H   30.895000000000   26.467000000000    7.902000000000
 H   30.547000000000   25.617000000000    9.425000000000
 H   31.853000000000   25.045000000000    8.370000000000
 C   28.476000000000   25.135000000000    7.705000000000
 H   27.762000000000   24.367000000000    7.412000000000
 H   28.235000000000   25.443000000000    8.721000000000
 H   28.371000000000   26.000000000000    7.051000000000
 H   30.174450000000   24.346750000000    6.627144000000
