9
0 1 
 C   22.699000000000   34.267000000000   11.985000000000
 H   21.747000000000   34.305000000000   12.516000000000
 C   23.727000000000   35.131000000000   12.722000000000
 H   24.714000000000   34.993000000000   12.277000000000
 H   23.447000000000   36.180000000000   12.638000000000
 H   23.766000000000   34.863000000000   13.778000000000
 O   22.495000000000   34.690000000000   10.589000000000
 H   22.365000000000   35.639000000000   10.549000000000
 H   23.053280000000   33.227640000000   11.920080000000
