14
1 1 
 C   37.220000000000   32.822000000000    8.827000000000
 H   36.843000000000   31.804000000000    8.932000000000
 H   37.193000000000   33.302000000000    9.802000000000
 C   36.351000000000   33.613000000000    7.838000000000
 H   35.342000000000   33.632000000000    8.206000000000
 H   36.727000000000   34.638000000000    7.774000000000
 C   36.322000000000   32.944000000000    6.477000000000
 H   37.337000000000   32.652000000000    6.186000000000
 H   35.709000000000   32.038000000000    6.517000000000
 N   35.768000000000   33.945000000000    5.489000000000
 H   36.271000000000   34.819000000000    5.550000000000
 H   35.864000000000   33.572000000000    4.552000000000
 H   34.779000000000   34.081000000000    5.667000000000
 H   38.253730000000   32.806440000000    8.451299000000
