18
0 1 
 C   26.235000000000   30.058000000000    7.497000000000
 H   25.173000000000   30.262000000000    7.348000000000
 C   26.882000000000   31.428000000000    7.862000000000
 O   27.906000000000   31.711000000000    7.264000000000
 N   26.214000000000   32.097000000000    8.771000000000
 H   25.335000000000   31.759000000000    9.150000000000
 H   26.692750000000   29.758300000000    6.542726000000
 H   26.313280000000   29.334060000000    8.321488000000
 H   26.619990000000   33.071220000000    9.080946000000
 C   31.409000000000   32.680000000000    6.446000000000
 O   32.619000000000   32.812000000000    6.125000000000
 N   30.884000000000   31.485000000000    6.666000000000
 H   29.884000000000   31.395000000000    6.821000000000
 C   31.677000000000   30.275000000000    6.639000000000
 H   32.719000000000   30.440000000000    6.361000000000
 H   30.749160000000   33.558800000000    6.494174000000
 H   31.207180000000   29.567050000000    5.940373000000
 H   31.594250000000   29.851180000000    7.650697000000
