10
1 1 
 N   26.975000000000   15.521000000000   20.942000000000
 H   27.242000000000   15.890000000000   21.837000000000
 C   27.603000000000   14.423000000000   20.655000000000
 N   27.479000000000   13.733000000000   19.537000000000
 H   26.860000000000   14.107000000000   18.824000000000
 H   28.115000000000   12.997000000000   19.302000000000
 N   28.519000000000   13.967000000000   21.550000000000
 H   28.711000000000   14.480000000000   22.391000000000
 H   29.094000000000   13.183000000000   21.299000000000
 H   26.240790000000   16.166950000000   20.438330000000
