21
0 1 
 C   34.762000000000   40.799000000000   11.470000000000
 H   35.174000000000   41.532000000000   12.167000000000
 H   34.864000000000   39.816000000000   11.936000000000
 C   35.614000000000   40.847000000000   10.240000000000
 H   35.727000000000   41.894000000000    9.947000000000
 H   36.609000000000   40.468000000000   10.512000000000
 N   35.100000000000   40.073000000000    9.101000000000
 H   34.148000000000   40.315000000000    8.835000000000
 H   35.703000000000   40.203000000000    8.302000000000
 H   35.178000000000   39.085000000000    9.334000000000
 H   33.695790000000   41.005480000000   11.295180000000
 C   38.290000000000   35.814000000000   12.698000000000
 H   38.041000000000   34.959000000000   13.329000000000
 H   38.325000000000   36.685000000000   13.353000000000
 C   37.156000000000   35.985000000000   11.688000000000
 H   37.250000000000   35.207000000000   10.937000000000
 H   36.216000000000   35.866000000000   12.226000000000
 C   37.192000000000   37.361000000000   11.033000000000
 O   37.519000000000   38.360000000000   11.645000000000
 O   36.861000000000   37.320000000000    9.822000000000
 H   39.277390000000   35.623790000000   12.252040000000
