18
0 1 
 C   38.794000000000   25.761000000000   13.880000000000
 H   39.533000000000   26.227000000000   14.535000000000
 C   38.728000000000   26.591000000000   12.611000000000
 O   39.704000000000   27.346000000000   12.277000000000
 N   37.633000000000   26.543000000000   11.867000000000
 H   36.939000000000   25.831000000000   12.081000000000
 H   37.512390000000   27.174350000000   10.974330000000
 H   39.144810000000   24.742860000000   13.655650000000
 H   37.823590000000   25.747510000000   14.397800000000
 C   41.092000000000   30.808000000000   12.851000000000
 O   41.828000000000   31.808000000000   12.681000000000
 N   41.001000000000   29.878000000000   11.931000000000
 H   40.442000000000   29.048000000000   12.087000000000
 C   41.718000000000   30.022000000000   10.643000000000
 H   42.786000000000   30.042000000000   10.870000000000
 H   41.486150000000   30.978480000000   10.151680000000
 H   41.487830000000   29.128670000000   10.043850000000
 H   40.503330000000   30.593420000000   13.755110000000
