9
0 1 
 C   26.882000000000   31.428000000000    7.862000000000
 O   27.906000000000   31.711000000000    7.264000000000
 N   26.214000000000   32.097000000000    8.771000000000
 H   25.335000000000   31.759000000000    9.150000000000
 C   26.772000000000   33.436000000000    9.197000000000
 H   27.659000000000   33.695000000000    8.619000000000
 H   25.999310000000   34.197930000000    9.016922000000
 H   27.049300000000   33.381860000000   10.260100000000
 H   26.425330000000   30.461010000000    7.604371000000
