14
0 1 
 C   35.114000000000   36.564000000000   22.907000000000
 H   34.545000000000   37.433000000000   22.572000000000
 H   35.807000000000   36.898000000000   23.679000000000
 C   35.926000000000   35.979000000000   21.737000000000
 H   36.734000000000   35.364000000000   22.133000000000
 C   35.003000000000   35.084000000000   20.920000000000
 H   34.004000000000   35.502000000000   20.834000000000
 H   35.381000000000   35.032000000000   19.904000000000
 H   34.994000000000   34.061000000000   21.285000000000
 C   36.533000000000   37.087000000000   20.917000000000
 H   37.167000000000   37.709000000000   21.550000000000
 H   37.146000000000   36.666000000000   20.120000000000
 H   35.752000000000   37.705000000000   20.474000000000
 H   34.434530000000   35.798280000000   23.309490000000
