9
0 1 
 C   32.776000000000   22.519000000000   16.577000000000
 O   33.233000000000   23.659000000000   16.384000000000
 N   33.548000000000   21.526000000000   16.950000000000
 H   33.142000000000   20.631000000000   17.211000000000
 C   35.031000000000   21.722000000000   17.069000000000
 H   35.253000000000   22.459000000000   17.842000000000
 H   31.706190000000   22.290370000000   16.461970000000
 H   35.488310000000   20.759200000000   17.340800000000
 H   35.456800000000   22.063220000000   16.113870000000
