23
0 1 
 C   25.353000000000   24.860000000000    5.134000000000
 H   26.271000000000   24.325000000000    5.365000000000
 H   25.400000000000   25.873000000000    5.533000000000
 S   23.930000000000   23.959000000000    5.904000000000
 C   24.447000000000   23.984000000000    7.620000000000
 H   24.441000000000   25.008000000000    7.993000000000
 H   23.766000000000   23.377000000000    8.211000000000
 H   25.451000000000   23.568000000000    7.707000000000
 H   25.176800000000   24.874620000000    4.048302000000
 C   26.344000000000   29.050000000000    8.645000000000
 H   25.879000000000   29.504000000000    9.522000000000
 C   25.491000000000   27.771000000000    8.287000000000
 H   25.945000000000   27.245000000000    7.447000000000
 H   25.448000000000   27.099000000000    9.144000000000
 H   24.475000000000   28.063000000000    8.019000000000
 C   27.810000000000   28.748000000000    8.999000000000
 H   28.241000000000   28.093000000000    8.242000000000
 H   28.394000000000   29.667000000000    9.015000000000
 C   27.967000000000   28.087000000000   10.417000000000
 H   27.385000000000   27.167000000000   10.473000000000
 H   29.013000000000   27.846000000000   10.595000000000
 H   27.625000000000   28.782000000000   11.183000000000
 H   26.265720000000   29.773940000000    7.820512000000
