9
0 1 
 N   24.240000000000   19.233000000000   12.246000000000
 H   25.095000000000   18.802000000000   11.905000000000
 C   24.241000000000   20.436000000000   12.857000000000
 O   23.264000000000   20.951000000000   13.329000000000
 C   25.594000000000   21.109000000000   13.072000000000
 H   25.497000000000   21.778000000000   13.926000000000
 H   26.334040000000   20.327890000000   13.300510000000
 H   25.943230000000   21.664210000000   12.188950000000
 H   23.264740000000   18.751300000000   12.082220000000
