30
0 1 
 C   22.085000000000   22.254000000000   16.581000000000
 H   22.734000000000   22.409000000000   15.719000000000
 H   21.556000000000   23.189000000000   16.770000000000
 C   22.945000000000   21.951000000000   17.785000000000
 C   24.272000000000   21.544000000000   17.644000000000
 H   24.693000000000   21.388000000000   16.659000000000
 C   25.052000000000   21.285000000000   18.776000000000
 H   26.081000000000   20.990000000000   18.667000000000
 C   24.517000000000   21.470000000000   20.030000000000
 O   25.248000000000   21.302000000000   21.191000000000
 H   24.728000000000   21.394000000000   21.993000000000
 C   23.204000000000   21.907000000000   20.192000000000
 H   22.798000000000   22.050000000000   21.180000000000
 C   22.437000000000   22.157000000000   19.065000000000
 H   21.415000000000   22.483000000000   19.173000000000
 H   21.361890000000   21.459740000000   16.343800000000
 C   22.650000000000   24.516000000000   12.172000000000
 H   23.215000000000   23.598000000000   12.003000000000
 C   23.376000000000   25.645000000000   11.409000000000
 H   22.954000000000   26.611000000000   11.687000000000
 H   24.444000000000   25.631000000000   11.623000000000
 H   23.277000000000   25.511000000000   10.333000000000
 C   22.662000000000   24.819000000000   13.699000000000
 H   22.117000000000   25.741000000000   13.891000000000
 H   22.184000000000   24.007000000000   14.242000000000
 C   24.123000000000   24.981000000000   14.195000000000
 H   24.588000000000   25.879000000000   13.799000000000
 H   24.114000000000   25.061000000000   15.282000000000
 H   24.702000000000   24.100000000000   13.921000000000
 H   21.618800000000   24.338040000000   11.832960000000
