9
0 1 
 C   23.509000000000   32.224000000000   13.290000000000
 O   22.544000000000   31.942000000000   14.034000000000
 N   24.790000000000   32.021000000000   13.618000000000
 H   25.521000000000   32.273000000000   12.959000000000
 C   25.149000000000   31.609000000000   14.980000000000
 H   24.299000000000   31.206000000000   15.534000000000
 H   23.295190000000   32.611300000000   12.282880000000
 H   25.977110000000   30.885020000000   14.970730000000
 H   25.540330000000   32.512130000000   15.471130000000
