16
0 1 
 C   22.085000000000   22.254000000000   16.581000000000
 H   22.734000000000   22.409000000000   15.719000000000
 H   21.556000000000   23.189000000000   16.770000000000
 C   22.945000000000   21.951000000000   17.785000000000
 C   24.272000000000   21.544000000000   17.644000000000
 H   24.693000000000   21.388000000000   16.659000000000
 C   25.052000000000   21.285000000000   18.776000000000
 H   26.081000000000   20.990000000000   18.667000000000
 C   24.517000000000   21.470000000000   20.030000000000
 O   25.248000000000   21.302000000000   21.191000000000
 H   24.728000000000   21.394000000000   21.993000000000
 C   23.204000000000   21.907000000000   20.192000000000
 H   22.798000000000   22.050000000000   21.180000000000
 C   22.437000000000   22.157000000000   19.065000000000
 H   21.415000000000   22.483000000000   19.173000000000
 H   21.361890000000   21.459740000000   16.343800000000
