14
0 1 
 C   32.995000000000   35.883000000000    9.934000000000
 H   33.813000000000   36.384000000000    9.412000000000
 C   33.109000000000   36.381000000000   11.435000000000
 H   32.449000000000   35.800000000000   12.081000000000
 H   34.130000000000   36.321000000000   11.799000000000
 H   32.849000000000   37.436000000000   11.509000000000
 C   33.306000000000   34.381000000000    9.840000000000
 H   32.459000000000   33.813000000000   10.228000000000
 H   33.449000000000   34.098000000000    8.802000000000
 C   34.535000000000   34.028000000000   10.720000000000
 H   34.329000000000   34.129000000000   11.785000000000
 H   34.809000000000   32.988000000000   10.545000000000
 H   35.346000000000   34.662000000000   10.400000000000
 H   32.083020000000   36.173400000000    9.391819000000
