18
0 1 
 C   32.492000000000   18.193000000000   14.995000000000
 H   32.417000000000   18.313000000000   16.076000000000
 C   32.352000000000   16.700000000000   14.630000000000
 H   32.515000000000   16.546000000000   13.564000000000
 H   33.089000000000   16.126000000000   15.191000000000
 H   31.355000000000   16.351000000000   14.901000000000
 O   33.778000000000   18.739000000000   14.516000000000
 H   34.474000000000   18.249000000000   14.975000000000
 H   31.724450000000   18.804090000000   14.497570000000
 C   35.615000000000   22.190000000000   15.759000000000
 O   36.532000000000   23.046000000000   15.724000000000
 N   35.139000000000   21.624000000000   14.662000000000
 H   34.436000000000   20.901000000000   14.762000000000
 C   35.590000000000   21.945000000000   13.302000000000
 H   36.681000000000   21.885000000000   13.291000000000
 H   35.212480000000   21.235900000000   12.550560000000
 H   35.336600000000   22.979490000000   13.027000000000
 H   35.189200000000   21.848780000000   16.714120000000
