24
0 1 
 C   25.695000000000   34.498000000000    8.946000000000
 H   24.818000000000   34.250000000000    9.540000000000
 H   26.056000000000   35.461000000000    9.292000000000
 C   25.288000000000   34.609000000000    7.499000000000
 C   24.147000000000   33.966000000000    7.038000000000
 H   23.517000000000   33.410000000000    7.721000000000
 C   23.812000000000   34.031000000000    5.677000000000
 H   22.916000000000   33.556000000000    5.304000000000
 C   24.620000000000   34.778000000000    4.853000000000
 H   24.348000000000   34.851000000000    3.809000000000
 C   25.810000000000   35.392000000000    5.267000000000
 H   26.421000000000   35.939000000000    4.563000000000
 C   26.136000000000   35.346000000000    6.640000000000
 H   26.994000000000   35.858000000000    7.039000000000
 H   26.467690000000   33.736080000000    9.126078000000
 C   30.091000000000   34.393000000000    5.078000000000
 H   29.482000000000   33.653000000000    4.557000000000
 C   29.420000000000   35.756000000000    5.119000000000
 H   30.164000000000   36.545000000000    5.227000000000
 H   28.874000000000   35.909000000000    4.188000000000
 H   28.740000000000   35.800000000000    5.956000000000
 O   31.440000000000   34.513000000000    4.487000000000
 H   31.819000000000   33.626000000000    4.434000000000
 H   30.379780000000   34.037950000000    6.078273000000
