16
0 1 
 N   27.510000000000   17.689000000000   15.954000000000
 H   26.729000000000   17.079000000000   16.191000000000
 C   27.574000000000   18.192000000000   14.563000000000
 H   28.529000000000   18.639000000000   14.366000000000
 C   27.299000000000   17.055000000000   13.533000000000
 H   27.287000000000   17.474000000000   12.529000000000
 C   28.236000000000   15.864000000000   13.558000000000
 H   28.192000000000   15.374000000000   14.531000000000
 H   27.945000000000   15.155000000000   12.783000000000
 H   29.254000000000   16.201000000000   13.365000000000
 O   25.925000000000   16.611000000000   13.913000000000
 H   25.537000000000   16.148000000000   13.159000000000
 C   26.482000000000   19.280000000000   14.432000000000
 O   25.609000000000   19.388000000000   15.287000000000
 H   28.236610000000   17.949400000000   16.737730000000
 H   26.568030000000   19.933960000000   13.551700000000
