18
0 1 
 C   25.594000000000   21.109000000000   13.072000000000
 H   25.497000000000   21.778000000000   13.926000000000
 C   24.241000000000   20.436000000000   12.857000000000
 O   23.264000000000   20.951000000000   13.329000000000
 N   24.240000000000   19.233000000000   12.246000000000
 H   25.095000000000   18.802000000000   11.905000000000
 H   23.264740000000   18.751300000000   12.082220000000
 H   25.943230000000   21.664210000000   12.188950000000
 H   26.334040000000   20.327890000000   13.300510000000
 C   21.460000000000   18.737000000000   16.163000000000
 O   20.497000000000   18.506000000000   16.900000000000
 N   21.846000000000   19.954000000000   15.905000000000
 H   22.698000000000   20.061000000000   15.367000000000
 C   21.079000000000   21.149000000000   16.251000000000
 H   20.475000000000   20.949000000000   17.136000000000
 H   22.147940000000   17.947810000000   15.825490000000
 H   20.397430000000   21.469780000000   15.449400000000
 H   21.802100000000   21.943260000000   16.488200000000
