9
0 1 
 C   37.738000000000   31.637000000000   23.712000000000
 H   37.651000000000   31.725000000000   24.796000000000
 N   38.419000000000   30.373000000000   23.341000000000
 H   38.981000000000   30.319000000000   22.499000000000
 C   38.365000000000   29.335000000000   24.159000000000
 O   37.684000000000   29.390000000000   25.221000000000
 H   38.869030000000   28.416480000000   23.823940000000
 H   36.735410000000   31.711980000000   23.265690000000
 H   38.300570000000   32.503640000000   23.334580000000
