7
-1 1 
 C   33.638000000000   20.716000000000   21.242000000000
 H   33.550000000000   20.270000000000   22.234000000000
 H   34.364000000000   20.133000000000   20.673000000000
 C   34.174000000000   22.129000000000   21.354000000000
 O   35.252000000000   22.322000000000   21.958000000000
 O   33.544000000000   23.086000000000   20.883000000000
 H   32.666120000000   20.683510000000   20.727810000000
