9
0 1 
 C   35.615000000000   22.190000000000   15.759000000000
 O   36.532000000000   23.046000000000   15.724000000000
 N   35.139000000000   21.624000000000   14.662000000000
 H   34.436000000000   20.901000000000   14.762000000000
 C   35.590000000000   21.945000000000   13.302000000000
 H   36.681000000000   21.885000000000   13.291000000000
 H   35.212480000000   21.235900000000   12.550560000000
 H   35.336600000000   22.979490000000   13.027000000000
 H   35.189200000000   21.848780000000   16.714120000000
