28
0 1 
 C   30.520000000000   22.300000000000   17.764000000000
 H   30.863000000000   21.515000000000   18.413000000000
 C   30.832000000000   23.699000000000   18.358000000000
 H   30.685000000000   24.476000000000   17.610000000000
 H   30.172000000000   23.874000000000   19.207000000000
 H   31.859000000000   23.726000000000   18.727000000000
 C   29.006000000000   22.043000000000   17.442000000000
 H   28.831000000000   21.016000000000   17.160000000000
 H   28.443000000000   22.207000000000   18.360000000000
 H   28.795000000000   22.680000000000   15.384000000000
 H   27.326000000000   22.805000000000   16.351000000000
 H   28.618000000000   23.995000000000   16.580000000000
 C   28.407000000000   22.948000000000   16.366000000000
 H   31.063730000000   22.229910000000   16.810350000000
 C   27.043000000000   24.992000000000   19.571000000000
 H   27.973000000000   25.560000000000   19.529000000000
 H   27.174000000000   24.103000000000   18.954000000000
 C   25.931000000000   25.844000000000   18.959000000000
 H   25.888000000000   26.813000000000   19.450000000000
 C   26.203000000000   26.083000000000   17.471000000000
 H   26.174000000000   25.135000000000   16.931000000000
 H   25.450000000000   26.753000000000   17.058000000000
 H   27.188000000000   26.530000000000   17.344000000000
 C   24.577000000000   25.190000000000   19.079000000000
 H   24.281000000000   25.115000000000   20.124000000000
 H   23.829000000000   25.764000000000   18.560000000000
 H   24.614000000000   24.192000000000   18.645000000000
 H   26.887140000000   24.653700000000   20.606020000000
