9
0 1 
 C   41.092000000000   30.808000000000   12.851000000000
 O   41.828000000000   31.808000000000   12.681000000000
 N   41.001000000000   29.878000000000   11.931000000000
 H   40.442000000000   29.048000000000   12.087000000000
 C   41.718000000000   30.022000000000   10.643000000000
 H   42.786000000000   30.042000000000   10.870000000000
 H   41.486150000000   30.978480000000   10.151680000000
 H   41.487830000000   29.128670000000   10.043850000000
 H   40.503330000000   30.593420000000   13.755110000000
