28
0 1 
 C   31.562000000000   29.686000000000    8.045000000000
 H   30.790000000000   30.265000000000    8.559000000000
 H   31.073000000000   28.716000000000    7.948000000000
 C   32.631000000000   29.444000000000    9.060000000000
 H   33.028000000000   28.443000000000    8.889000000000
 C   33.814000000000   30.390000000000    9.030000000000
 H   33.465000000000   31.415000000000    9.143000000000
 H   34.503000000000   30.145000000000    9.839000000000
 H   34.339000000000   30.288000000000    8.080000000000
 C   31.945000000000   29.449000000000   10.436000000000
 H   31.086000000000   28.781000000000   10.437000000000
 H   32.653000000000   29.096000000000   11.183000000000
 H   31.642000000000   30.461000000000   10.683000000000
 H   31.644750000000   30.109820000000    7.033303000000
 C   35.708000000000   30.776000000000   13.806000000000
 H   35.901000000000   29.999000000000   14.547000000000
 C   35.874000000000   32.138000000000   14.512000000000
 H   35.708000000000   32.951000000000   13.805000000000
 H   35.191000000000   32.233000000000   15.353000000000
 H   36.876000000000   32.231000000000   14.929000000000
 C   34.228000000000   30.630000000000   13.319000000000
 H   33.937000000000   31.481000000000   12.702000000000
 H   34.143000000000   29.718000000000   12.732000000000
 C   33.284000000000   30.504000000000   14.552000000000
 H   33.209000000000   31.442000000000   15.098000000000
 H   32.287000000000   30.236000000000   14.204000000000
 H   33.632000000000   29.710000000000   15.211000000000
 H   36.428860000000   30.630840000000   12.987900000000
