28
0 1 
 C   26.344000000000   29.050000000000    8.645000000000
 H   25.879000000000   29.504000000000    9.522000000000
 C   25.491000000000   27.771000000000    8.287000000000
 H   25.945000000000   27.245000000000    7.447000000000
 H   25.448000000000   27.099000000000    9.144000000000
 H   24.475000000000   28.063000000000    8.019000000000
 C   27.810000000000   28.748000000000    8.999000000000
 H   28.241000000000   28.093000000000    8.242000000000
 H   28.394000000000   29.667000000000    9.015000000000
 C   27.967000000000   28.087000000000   10.417000000000
 H   27.385000000000   27.167000000000   10.473000000000
 H   29.013000000000   27.846000000000   10.595000000000
 H   27.625000000000   28.782000000000   11.183000000000
 H   26.265720000000   29.773940000000    7.820512000000
 C   31.562000000000   29.686000000000    8.045000000000
 H   30.790000000000   30.265000000000    8.559000000000
 H   31.073000000000   28.716000000000    7.948000000000
 C   32.631000000000   29.444000000000    9.060000000000
 H   33.028000000000   28.443000000000    8.889000000000
 C   33.814000000000   30.390000000000    9.030000000000
 H   33.465000000000   31.415000000000    9.143000000000
 H   34.503000000000   30.145000000000    9.839000000000
 H   34.339000000000   30.288000000000    8.080000000000
 C   31.945000000000   29.449000000000   10.436000000000
 H   31.086000000000   28.781000000000   10.437000000000
 H   32.653000000000   29.096000000000   11.183000000000
 H   31.642000000000   30.461000000000   10.683000000000
 H   31.644750000000   30.109820000000    7.033303000000
