13
0 1 
 C   28.375000000000   17.999000000000   16.887000000000
 O   29.326000000000   18.786000000000   16.690000000000
 N   27.510000000000   17.689000000000   15.954000000000
 H   26.729000000000   17.079000000000   16.191000000000
 C   27.574000000000   18.192000000000   14.563000000000
 H   28.529000000000   18.639000000000   14.366000000000
 C   26.482000000000   19.280000000000   14.432000000000
 O   25.609000000000   19.388000000000   15.287000000000
 N   26.585000000000   20.063000000000   13.378000000000
 H   27.373000000000   19.916000000000   12.751000000000
 H   25.844960000000   20.844110000000   13.149490000000
 H   27.379920000000   17.389560000000   13.836070000000
 H   28.181940000000   17.594070000000   17.891370000000
