14
0 1 
 C   35.708000000000   30.776000000000   13.806000000000
 H   35.901000000000   29.999000000000   14.547000000000
 C   35.874000000000   32.138000000000   14.512000000000
 H   35.708000000000   32.951000000000   13.805000000000
 H   35.191000000000   32.233000000000   15.353000000000
 H   36.876000000000   32.231000000000   14.929000000000
 C   34.228000000000   30.630000000000   13.319000000000
 H   33.937000000000   31.481000000000   12.702000000000
 H   34.143000000000   29.718000000000   12.732000000000
 C   33.284000000000   30.504000000000   14.552000000000
 H   33.209000000000   31.442000000000   15.098000000000
 H   32.287000000000   30.236000000000   14.204000000000
 H   33.632000000000   29.710000000000   15.211000000000
 H   36.428860000000   30.630840000000   12.987900000000
