28
0 1 
 C   30.925000000000   34.304000000000   17.753000000000
 H   30.790000000000   33.539000000000   16.990000000000
 H   30.827000000000   35.284000000000   17.283000000000
 C   32.345000000000   34.183000000000   18.358000000000
 H   32.492000000000   34.899000000000   19.164000000000
 C   32.555000000000   32.783000000000   18.870000000000
 H   32.403000000000   32.055000000000   18.071000000000
 H   33.579000000000   32.699000000000   19.225000000000
 H   31.891000000000   32.566000000000   19.702000000000
 C   33.361000000000   34.491000000000   17.245000000000
 H   33.262000000000   35.526000000000   16.923000000000
 H   34.372000000000   34.336000000000   17.619000000000
 H   33.201000000000   33.829000000000   16.393000000000
 H   30.134520000000   34.192180000000   18.509730000000
 C   35.114000000000   36.564000000000   22.907000000000
 H   34.545000000000   37.433000000000   22.572000000000
 H   35.807000000000   36.898000000000   23.679000000000
 C   35.926000000000   35.979000000000   21.737000000000
 H   36.734000000000   35.364000000000   22.133000000000
 C   35.003000000000   35.084000000000   20.920000000000
 H   34.004000000000   35.502000000000   20.834000000000
 H   35.381000000000   35.032000000000   19.904000000000
 H   34.994000000000   34.061000000000   21.285000000000
 C   36.533000000000   37.087000000000   20.917000000000
 H   37.167000000000   37.709000000000   21.550000000000
 H   37.146000000000   36.666000000000   20.120000000000
 H   35.752000000000   37.705000000000   20.474000000000
 H   34.434530000000   35.798280000000   23.309490000000
