31
1 1 
 C   30.955000000000   35.211000000000    8.459000000000
 O   30.025000000000   34.618000000000    9.040000000000
 N   31.244000000000   34.986000000000    7.197000000000
 H   31.951000000000   35.496000000000    6.692000000000
 C   30.505000000000   33.884000000000    6.512000000000
 H   29.587000000000   33.607000000000    7.028000000000
 C   30.091000000000   34.393000000000    5.078000000000
 H   29.482000000000   33.653000000000    4.557000000000
 C   29.420000000000   35.756000000000    5.119000000000
 H   30.164000000000   36.545000000000    5.227000000000
 H   28.874000000000   35.909000000000    4.188000000000
 H   28.740000000000   35.800000000000    5.956000000000
 O   31.440000000000   34.513000000000    4.487000000000
 H   31.819000000000   33.626000000000    4.434000000000
 C   31.409000000000   32.680000000000    6.446000000000
 O   32.619000000000   32.812000000000    6.125000000000
 N   30.884000000000   31.485000000000    6.666000000000
 H   29.884000000000   31.395000000000    6.821000000000
 H   31.486850000000   30.565140000000    6.645474000000
 H   31.514580000000   35.999540000000    8.983472000000
 C   36.351000000000   33.613000000000    7.838000000000
 H   35.342000000000   33.632000000000    8.206000000000
 H   36.727000000000   34.638000000000    7.774000000000
 C   36.322000000000   32.944000000000    6.477000000000
 H   37.337000000000   32.652000000000    6.186000000000
 H   35.709000000000   32.038000000000    6.517000000000
 N   35.768000000000   33.945000000000    5.489000000000
 H   36.271000000000   34.819000000000    5.550000000000
 H   35.864000000000   33.572000000000    4.552000000000
 H   34.779000000000   34.081000000000    5.667000000000
 H   36.973380000000   33.046490000000    8.546318000000
