16
0 1 
 C   31.022000000000   29.288000000000    5.665000000000
 O   29.809000000000   29.395000000000    5.545000000000
 N   31.834000000000   28.412000000000    5.125000000000
 H   32.837000000000   28.458000000000    5.260000000000
 C   31.220000000000   27.341000000000    4.275000000000
 H   30.149000000000   27.499000000000    4.153000000000
 C   31.827000000000   27.262000000000    2.894000000000
 H   32.916000000000   27.263000000000    2.970000000000
 H   31.513000000000   26.319000000000    2.443000000000
 O   32.576000000000   25.802000000000    5.461000000000
 C   31.440000000000   26.079000000000    5.080000000000
 N   30.310000000000   25.458000000000    5.384000000000
 H   29.430000000000   25.804000000000    5.018000000000
 H   30.293400000000   24.542960000000    5.994275000000
 H   31.497660000000   28.076820000000    2.232488000000
 H   31.491820000000   29.995950000000    6.363626000000
