13
0 1 
 C   30.052000000000   35.042000000000   20.004000000000
 O   30.105000000000   36.305000000000   19.788000000000
 N   30.124000000000   34.533000000000   21.191000000000
 H   30.079000000000   33.523000000000   21.295000000000
 C   30.479000000000   35.369000000000   22.374000000000
 H   30.505000000000   36.428000000000   22.117000000000
 C   31.901000000000   34.910000000000   22.728000000000
 O   32.190000000000   33.696000000000   22.635000000000
 N   32.763000000000   35.831000000000   23.090000000000
 H   32.466000000000   36.787000000000   23.210000000000
 H   29.867860000000   34.383940000000   19.141990000000
 H   29.750620000000   35.233020000000   23.187000000000
 H   33.789860000000   35.564250000000   23.380520000000
