12
0 1 
 C   25.214000000000   34.565000000000   18.780000000000
 H   24.940000000000   33.724000000000   19.379000000000
 H   25.680000000000   35.333000000000   19.400000000000
 C   23.978000000000   35.121000000000   18.126000000000
 N   23.853000000000   36.432000000000   17.781000000000
 C   22.674000000000   36.627000000000   17.200000000000
 H   22.295000000000   37.565000000000   16.823000000000
 N   22.045000000000   35.455000000000   17.173000000000
 H   21.128000000000   35.293000000000   16.781000000000
 C   22.824000000000   34.514000000000   17.782000000000
 H   22.603000000000   33.463000000000   17.912000000000
 H   25.899200000000   34.254000000000   17.977640000000
