18
0 1 
 C   35.596000000000   26.715000000000   15.736000000000
 H   35.175000000000   27.721000000000   15.746000000000
 C   36.975000000000   26.826000000000   15.107000000000
 O   37.579000000000   27.926000000000   15.159000000000
 N   37.499000000000   25.743000000000   14.571000000000
 H   37.012000000000   24.858000000000   14.664000000000
 H   38.469410000000   25.756490000000   14.053200000000
 H   34.950810000000   26.046610000000   15.146950000000
 H   35.681600000000   26.346700000000   16.768970000000
 C   38.148000000000   30.981000000000   13.069000000000
 O   38.544000000000   32.150000000000   12.856000000000
 N   38.883000000000   30.110000000000   13.713000000000
 H   38.533000000000   29.186000000000   13.937000000000
 C   40.269000000000   30.508000000000   14.115000000000
 H   40.236000000000   31.406000000000   14.731000000000
 H   40.793930000000   29.707250000000   14.656530000000
 H   40.857670000000   30.722580000000   13.210890000000
 H   37.132640000000   30.686490000000   12.765180000000
