13
0 1 
 N   19.172000000000   29.808000000000   21.243000000000
 H   19.577000000000   30.558000000000   20.693000000000
 C   18.453000000000   28.941000000000   20.591000000000
 O   17.860000000000   27.994000000000   21.128000000000
 C   18.443000000000   29.143000000000   19.083000000000
 H   17.837000000000   30.025000000000   18.873000000000
 N   19.810000000000   29.378000000000   18.578000000000
 H   19.931000000000   30.108000000000   17.886000000000
 C   20.835000000000   28.629000000000   18.904000000000
 O   20.821000000000   27.734000000000   19.749000000000
 H   18.017260000000   28.285640000000   18.541080000000
 H   21.756670000000   28.938130000000   18.389260000000
 H   19.346280000000   29.874030000000   22.327100000000
