9
0 1 
 C   35.031000000000   21.722000000000   17.069000000000
 H   35.253000000000   22.459000000000   17.842000000000
 C   35.615000000000   22.190000000000   15.759000000000
 O   36.532000000000   23.046000000000   15.724000000000
 N   35.139000000000   21.624000000000   14.662000000000
 H   34.436000000000   20.901000000000   14.762000000000
 H   35.476860000000   21.864480000000   13.643170000000
 H   33.943920000000   21.578330000000   16.981770000000
 H   35.488310000000   20.759200000000   17.340800000000
