22
1 1 
 C   34.738000000000   30.875000000000   21.473000000000
 H   34.456000000000   31.916000000000   21.318000000000
 C   33.589000000000   30.189000000000   22.181000000000
 O   33.580000000000   29.009000000000   22.499000000000
 N   32.478000000000   30.917000000000   22.269000000000
 H   32.500000000000   31.907000000000   22.035000000000
 H   31.538740000000   30.484850000000   22.644560000000
 H   34.835870000000   30.422530000000   20.475150000000
 H   35.700200000000   30.863560000000   22.005950000000
 C   35.612000000000   30.577000000000   28.044000000000
 H   36.605000000000   30.127000000000   28.125000000000
 H   35.004000000000   30.265000000000   28.894000000000
 N   35.040000000000   30.252000000000   26.730000000000
 H   35.512000000000   30.595000000000   25.905000000000
 C   34.338000000000   29.103000000000   26.650000000000
 N   34.110000000000   28.437000000000   27.768000000000
 H   34.564000000000   28.732000000000   28.609000000000
 H   33.689000000000   27.527000000000   27.717000000000
 N   34.014000000000   28.657000000000   25.457000000000
 H   34.369000000000   29.108000000000   24.627000000000
 H   33.716000000000   27.705000000000   25.340000000000
 H   35.715480000000   31.668760000000   28.129740000000
