18
0 1 
 C   28.469000000000   37.475000000000   15.420000000000
 O   28.213000000000   36.753000000000   16.411000000000
 N   29.426000000000   38.430000000000   15.446000000000
 H   29.612000000000   39.012000000000   14.635000000000
 C   30.225000000000   38.643000000000   16.662000000000
 H   30.179000000000   37.771000000000   17.313000000000
 H   27.899930000000   37.357970000000   14.485940000000
 H   31.282870000000   38.807360000000   16.409200000000
 H   29.821690000000   39.502830000000   17.217010000000
 C   31.191000000000   42.012000000000   12.331000000000
 H   31.052000000000   42.639000000000   11.449000000000
 C   30.459000000000   40.666000000000   12.130000000000
 O   30.253000000000   39.991000000000   13.133000000000
 N   30.163000000000   40.338000000000   10.886000000000
 H   30.353000000000   40.972000000000   10.114000000000
 H   29.700030000000   39.355410000000   10.712290000000
 H   30.716850000000   42.473320000000   13.209840000000
 H   32.262710000000   41.798530000000   12.456910000000
