9
0 1 
 C   32.776000000000   22.519000000000   16.577000000000
 O   33.233000000000   23.659000000000   16.384000000000
 N   33.548000000000   21.526000000000   16.950000000000
 H   33.142000000000   20.631000000000   17.211000000000
 C   31.288000000000   22.201000000000   16.417000000000
 H   30.905000000000   22.936000000000   15.712000000000
 H   34.635080000000   21.669670000000   17.037230000000
 H   31.156140000000   21.192800000000   15.997290000000
 H   30.744270000000   22.271090000000   17.370650000000
