9
0 1 
 C   40.226000000000   33.716000000000   17.509000000000
 H   40.748000000000   34.446000000000   18.116000000000
 C   40.449000000000   32.278000000000   17.945000000000
 O   39.936000000000   31.336000000000   17.315000000000
 N   41.189000000000   32.085000000000   19.031000000000
 H   40.537020000000   33.865530000000   16.464530000000
 H   39.161530000000   33.986800000000   17.568720000000
 H   41.655400000000   32.897700000000   19.607190000000
 H   41.392090000000   31.088980000000   19.451360000000
