27
1 1 
 C   31.022000000000   29.288000000000    5.665000000000
 O   29.809000000000   29.395000000000    5.545000000000
 N   31.834000000000   28.412000000000    5.125000000000
 H   32.837000000000   28.458000000000    5.260000000000
 C   31.220000000000   27.341000000000    4.275000000000
 H   30.149000000000   27.499000000000    4.153000000000
 C   31.827000000000   27.262000000000    2.894000000000
 H   32.916000000000   27.263000000000    2.970000000000
 H   31.513000000000   26.319000000000    2.443000000000
 O   32.576000000000   25.802000000000    5.461000000000
 C   31.440000000000   26.079000000000    5.080000000000
 N   30.310000000000   25.458000000000    5.384000000000
 H   29.430000000000   25.804000000000    5.018000000000
 H   30.293400000000   24.542960000000    5.994275000000
 H   31.497660000000   28.076820000000    2.232488000000
 H   31.491820000000   29.995950000000    6.363626000000
 C   34.758000000000   25.280000000000    8.900000000000
 H   34.198000000000   24.848000000000    9.730000000000
 H   34.230000000000   26.175000000000    8.568000000000
 C   34.793000000000   24.264000000000    7.767000000000
 H   35.625000000000   23.572000000000    7.930000000000
 H   33.866000000000   23.679000000000    7.782000000000
 N   34.914000000000   24.944000000000    6.441000000000
 H   35.767000000000   25.474000000000    6.361000000000
 H   34.880000000000   24.229000000000    5.720000000000
 H   34.097000000000   25.520000000000    6.254000000000
 H   35.765290000000   25.525510000000    9.267536000000
