18
0 1 
 C   31.398000000000   19.064000000000   14.286000000000
 H   30.436000000000   18.719000000000   14.622000000000
 C   31.593000000000   20.553000000000   14.655000000000
 O   32.159000000000   21.311000000000   13.861000000000
 N   31.113000000000   20.863000000000   15.860000000000
 H   30.636000000000   20.148000000000   16.405000000000
 H   31.244870000000   21.871200000000   16.279710000000
 H   32.165550000000   18.452910000000   14.783430000000
 H   31.483320000000   18.966500000000   13.193660000000
 C   35.238000000000   23.382000000000   12.920000000000
 O   36.066000000000   24.109000000000   12.333000000000
 N   34.007000000000   23.745000000000   13.250000000000
 H   33.397000000000   23.059000000000   13.687000000000
 C   33.533000000000   25.097000000000   12.978000000000
 H   33.628000000000   25.293000000000   11.911000000000
 H   32.474750000000   25.211950000000   13.255310000000
 H   34.187770000000   25.819560000000   13.487110000000
 H   35.491400000000   22.347510000000   13.195000000000
