17
1 1 
 C   35.715000000000   26.203000000000   17.172000000000
 H   35.982000000000   25.146000000000   17.194000000000
 H   36.483000000000   26.785000000000   17.680000000000
 C   34.343000000000   26.445000000000   17.898000000000
 H   34.052000000000   27.490000000000   17.825000000000
 H   33.556000000000   25.841000000000   17.455000000000
 C   34.509000000000   26.077000000000   19.360000000000
 H   34.787000000000   25.022000000000   19.430000000000
 H   35.306000000000   26.680000000000   19.800000000000
 C   33.206000000000   26.311000000000   20.122000000000
 H   32.920000000000   27.363000000000   20.056000000000
 H   32.425000000000   25.682000000000   19.686000000000
 N   33.455000000000   25.910000000000   21.546000000000
 H   34.179000000000   26.474000000000   21.962000000000
 H   32.614000000000   25.985000000000   22.091000000000
 H   33.744000000000   24.923000000000   21.545000000000
 H   35.629400000000   26.571300000000   16.139030000000
