6
0 1 
 C   26.913000000000   26.639000000000    3.531000000000
 O   27.886000000000   26.463000000000    4.263000000000
 N   26.335000000000   27.770000000000    3.258000000000
 H   25.505000000000   27.818000000000    2.673000000000
 H   26.453260000000   25.767830000000    3.041411000000
 H   26.713520000000   28.689480000000    3.728398000000
