9
0 1 
 C   28.108000000000   17.439000000000   18.276000000000
 H   27.847000000000   16.388000000000   18.150000000000
 C   28.375000000000   17.999000000000   16.887000000000
 O   29.326000000000   18.786000000000   16.690000000000
 N   27.510000000000   17.689000000000   15.954000000000
 H   26.729000000000   17.079000000000   16.191000000000
 H   27.557550000000   18.062720000000   14.920520000000
 H   29.025470000000   17.554430000000   18.871760000000
 H   27.258410000000   17.979520000000   18.718760000000
