28
0 1 
 C   35.708000000000   30.776000000000   13.806000000000
 H   35.901000000000   29.999000000000   14.547000000000
 C   35.874000000000   32.138000000000   14.512000000000
 H   35.708000000000   32.951000000000   13.805000000000
 H   35.191000000000   32.233000000000   15.353000000000
 H   36.876000000000   32.231000000000   14.929000000000
 C   34.228000000000   30.630000000000   13.319000000000
 H   33.937000000000   31.481000000000   12.702000000000
 H   34.143000000000   29.718000000000   12.732000000000
 C   33.284000000000   30.504000000000   14.552000000000
 H   33.209000000000   31.442000000000   15.098000000000
 H   32.287000000000   30.236000000000   14.204000000000
 H   33.632000000000   29.710000000000   15.211000000000
 H   36.428860000000   30.630840000000   12.987900000000
 C   29.151000000000   28.655000000000   18.755000000000
 H   29.215000000000   27.648000000000   19.172000000000
 H   28.322000000000   28.637000000000   18.045000000000
 C   30.416000000000   28.912000000000   17.980000000000
 H   31.242000000000   29.080000000000   18.671000000000
 C   30.738000000000   27.693000000000   17.122000000000
 H   29.921000000000   27.482000000000   16.432000000000
 H   31.647000000000   27.884000000000   16.550000000000
 H   30.912000000000   26.825000000000   17.756000000000
 C   30.205000000000   30.168000000000   17.129000000000
 H   30.017000000000   31.034000000000   17.761000000000
 H   31.110000000000   30.356000000000   16.551000000000
 H   29.373000000000   30.026000000000   16.440000000000
 H   28.870000000000   29.318130000000   19.586440000000
