18
0 1 
 C   31.744000000000   38.879000000000   16.299000000000
 H   32.375000000000   38.789000000000   17.181000000000
 C   32.260000000000   37.969000000000   15.171000000000
 H   31.795000000000   38.224000000000   14.220000000000
 H   33.339000000000   38.089000000000   15.075000000000
 H   32.039000000000   36.929000000000   15.407000000000
 O   31.737000000000   40.257000000000   15.824000000000
 H   32.648000000000   40.543000000000   15.685000000000
 H   30.686130000000   38.714650000000   16.551800000000
 C   30.075000000000   42.538000000000   18.984000000000
 O   29.586000000000   43.570000000000   19.483000000000
 N   30.991000000000   42.571000000000   17.998000000000
 H   31.378000000000   41.738000000000   17.572000000000
 C   31.422000000000   43.940000000000   17.553000000000
 H   31.183000000000   44.701000000000   18.293000000000
 H   29.735290000000   41.552260000000   19.334600000000
 H   32.519260000000   43.924500000000   17.476890000000
 H   30.931990000000   44.241940000000   16.615600000000
