14
0 1 
 C   24.639000000000   31.426000000000   21.286000000000
 H   24.663000000000   32.301000000000   20.671000000000
 C   23.181000000000   31.309000000000   21.824000000000
 H   23.022000000000   30.347000000000   22.311000000000
 H   22.976000000000   32.113000000000   22.530000000000
 H   22.472000000000   31.400000000000   21.001000000000
 C   25.646000000000   31.670000000000   22.421000000000
 H   26.626000000000   31.926000000000   22.016000000000
 H   25.304000000000   32.521000000000   23.011000000000
 C   25.778000000000   30.436000000000   23.356000000000
 H   26.403000000000   29.690000000000   22.898000000000
 H   26.269000000000   30.746000000000   24.274000000000
 H   24.808000000000   30.016000000000   23.614000000000
 H   24.912880000000   30.555120000000   20.672360000000
