14
0 1 
 C   26.310000000000   30.594000000000   14.967000000000
 H   27.244000000000   31.135000000000   14.803000000000
 H   26.368000000000   30.156000000000   15.965000000000
 C   26.290000000000   29.480000000000   13.960000000000
 H   26.459000000000   29.906000000000   12.971000000000
 C   27.393000000000   28.442000000000   14.229000000000
 H   27.257000000000   27.992000000000   15.212000000000
 H   27.352000000000   27.657000000000   13.474000000000
 H   28.371000000000   28.921000000000   14.181000000000
 C   24.942000000000   28.807000000000   13.952000000000
 H   24.133000000000   29.498000000000   13.737000000000
 H   24.937000000000   28.054000000000   13.165000000000
 H   24.769000000000   28.313000000000   14.905000000000
 H   25.481890000000   31.317980000000   14.976270000000
