9
0 1 
 C   27.299000000000   17.055000000000   13.533000000000
 H   27.287000000000   17.474000000000   12.529000000000
 C   28.236000000000   15.864000000000   13.558000000000
 H   28.192000000000   15.374000000000   14.531000000000
 H   27.945000000000   15.155000000000   12.783000000000
 H   29.254000000000   16.201000000000   13.365000000000
 O   25.925000000000   16.611000000000   13.913000000000
 H   25.537000000000   16.148000000000   13.159000000000
 H   27.493080000000   17.857440000000   14.259930000000
