11
0 1 
 C   29.903000000000   24.590000000000    7.665000000000
 H   29.900000000000   23.663000000000    8.237000000000
 C   30.862000000000   25.496000000000    8.389000000000
 H   30.895000000000   26.467000000000    7.902000000000
 H   30.547000000000   25.617000000000    9.425000000000
 H   31.853000000000   25.045000000000    8.370000000000
 C   28.476000000000   25.135000000000    7.705000000000
 H   27.762000000000   24.367000000000    7.412000000000
 H   28.235000000000   25.443000000000    8.721000000000
 H   28.371000000000   26.000000000000    7.051000000000
 H   30.174450000000   24.346750000000    6.627144000000
