14
0 1 
 C    0.859101082538   -0.350340904255   -0.141415446840
 C    0.362101082538    0.707659095745   -0.900415446840
 N   -0.865898917462    1.268659095745   -0.680415446840
 C   -1.629898917462    0.732659095745    0.317584553160
 C   -1.192898917462   -0.334340904255    1.094584553160
 C    0.062101082538   -0.888340904255    0.862584553160
 C    2.183101082538   -1.019340904255   -0.468415446840
 H    2.170101082538   -2.002340904255    0.015584553160
 H    2.240101082538   -1.187340904255   -1.552415446840
 H    0.418101082538   -1.743340904255    1.432584553160
 H   -1.837898917462   -0.733340904255    1.871584553160
 H   -2.644898917462    1.132659095745    0.503584553160
 H    0.942101082538    1.082659095745   -1.753415446840
 H    3.080184082538   -0.458940904255   -0.166434446840
