13
0 1 
 C    1.224862158281   -1.501715290699   -0.885512400072
 O    2.319862158281   -0.940715290699   -0.932512400072
 N    0.058862158281   -0.862715290699   -0.789512400072
 H   -0.824137841719   -1.367715290699   -0.763512400072
 C   -0.037137841719    0.551284709301   -0.513512400072
 H    0.954862158281    0.970284709301   -0.362512400072
 H   -0.495137841719    1.025284709301   -1.374512400072
 C   -0.898137841719    0.793284709301    0.721487599928
 O   -0.931137841719    0.005284709301    1.667487599928
 N   -1.657137841719    1.877284709301    0.685487599928
 H   -1.662137841719    2.456284709301   -0.149512400072
 H    1.182712158281   -2.600425290699   -0.918211400072
 H   -2.437277841719    2.136574709301    1.416347599928
