28
0 1 
 C    1.325549567673    2.865678899615   -0.912033268966
 H    0.990549567673    2.257678899615   -0.077033268966
 C    0.299549567673    2.785678899615   -2.068033268966
 H    0.227549567673    1.746678899615   -2.427033268966
 H   -0.692450432327    3.114678899615   -1.714033268966
 H    0.611549567673    3.434678899615   -2.907033268966
 H    1.388279567673    3.905628899615   -0.559085268966
 H    2.321089567673    2.491548899615   -1.192990268966
 C   -0.738450432327    0.186678899615    1.895966731034
 C    0.670549567673   -0.376321100385    2.290966731034
 O    1.694549567673    0.579678899615    1.955966731034
 C    0.851549567673   -1.623321100385    1.394966731034
 C    0.021549567673   -1.357321100385    0.155966731034
 C    0.097549567673   -1.957321100385   -1.127033268966
 C   -0.782450432327   -1.468321100385   -2.107033268966
 C   -1.685450432327   -0.437321100385   -1.800033268966
 C   -1.734450432327    0.140678899615   -0.531033268966
 C   -0.875450432327   -0.332321100385    0.452966731034
 H   -1.532450432327   -0.211321100385    2.554966731034
 H    0.789549567673   -0.672321100385    3.337966731034
 H    0.463549567673   -2.493321100385    1.929966731034
 H    1.903549567673   -1.776321100385    1.195966731034
 H    0.809549567673   -2.777321100385   -1.412033268966
 H   -0.774450432327   -1.873321100385   -3.131033268966
 H   -2.356450432327   -0.054321100385   -2.562033268966
 H   -2.419450432327    0.962678899615   -0.327033268966
 H    2.577549567673    0.210678899615    2.221966731034
 H   -0.839370432327    1.269848899615    2.058928731034
