25
0 1 
 N    0.528078677221   -3.345235756799   -0.687614684372
 H    1.274078677221   -3.232235756799   -0.027614684372
 C   -0.553921322779   -2.581235756799   -0.580614684372
 O   -1.561921322779   -2.755235756799   -1.263614684372
 C   -0.474921322779   -1.483235756799    0.475385315628
 H   -0.134921322779   -0.569235756799    0.005385315628
 H    0.240078677221   -1.780235756799    1.238385315628
 N   -1.739921322779   -1.232235756799    1.129385315628
 H   -2.051921322779   -1.960235756799    1.764385315628
 O   -2.158921322779    0.740764243201    0.112385315628
 C   -2.529921322779   -0.206235756799    0.802385315628
 H    0.689294677221   -4.169575756799   -1.397881684372
 H   -3.557152322779   -0.214205756799    1.195746315628
 C    1.821078677221    1.902764243201   -1.870614684372
 C    1.796078677221    1.845764243201   -0.342614684372
 O    2.150078677221    0.867764243201    0.294385315628
 N    1.372078677221    2.970764243201    0.261385315628
 C    1.285078677221    3.283764243201    1.667385315628
 H    1.068078677221    3.716764243201   -0.311614684372
 H    1.689078677221    2.995764243201   -2.114614684372
 H    2.725268677221    1.441524243201   -2.294521684372
 H    0.986222677221    1.265434243201   -2.197451684372
 H    0.727503677221    2.543764243201    2.260268315628
 H    0.766208677221    4.246454243201    1.785737315628
 H    2.284478677221    3.357524243201    2.120988315628
