13
0 1 
 C   -1.154777343162    0.940832644649    1.463894311909
 O   -1.090777343162   -0.028167355351    2.226894311909
 N   -0.937777343162    0.847832644649    0.154894311909
 H   -0.973777343162    1.651832644649   -0.456105688091
 C   -0.586777343162   -0.407167355351   -0.468105688091
 H   -0.645777343162   -1.195167355351    0.262894311909
 H   -1.308777343162   -0.580167355351   -1.258105688091
 C    0.831222656838   -0.396167355351   -1.011105688091
 O    1.202222656838    0.550832644649   -1.701105688091
 N    1.621222656838   -1.422167355351   -0.684105688091
 H    1.309222656838   -2.150167355351   -0.049105688091
 H   -1.389996343162    1.934542644649    1.872814311909
 H    2.583526656838   -1.613107355351   -1.181612688091
