26
0 1 
 C    1.054821915576    1.486023176162    4.522369291163
 H    1.972821915576    0.950023176162    4.272369291163
 C    0.303821915576    1.765023176162    3.232369291163
 H    0.070821915576    0.814023176162    2.750369291163
 H   -0.607178084424    2.314023176162    3.469369291163
 H    0.956821915576    2.368023176162    2.588369291163
 H    0.417191915576    0.864893176162    5.168609291163
 H    1.301711915576    2.424783176162    5.039839291163
 C    0.115821915576   -1.381976823838   -2.707630708837
 O    0.469821915576   -2.359976823838   -2.070630708837
 N   -0.308178084424   -0.256976823838   -2.103630708837
 C   -0.395178084424    0.056023176162   -0.697630708837
 C   -1.114178084424    1.390023176162   -0.533630708837
 C    0.959821915576    0.156023176162   -0.082630708837
 C   -1.153178084424   -0.949976823838    0.108369291163
 H   -0.612178084424    0.489023176162   -2.676630708837
 H   -0.578178084424    2.171023176162   -1.080630708837
 H   -2.122178084424    1.264023176162   -0.940630708837
 H   -1.169178084424    1.646023176162    0.532369291163
 H   -0.679178084424   -1.917976823838   -0.013630708837
 H   -1.115178084424   -0.625976823838    1.155369291163
 H   -2.158178084424   -0.932976823838   -0.273630708837
 H    0.801821915576    0.376023176162    0.970369291163
 H    1.483821915576    0.949023176162   -0.588630708837
 H    1.445821915576   -0.806976823838   -0.216630708837
 H    0.133801915576   -1.340976823838   -3.806719708837
