32
0 1 
 C   -0.092591574162   -2.973985591159    1.218986067409
 H   -0.532591574162   -2.929985591159    0.212986067409
 C   -1.186591574162   -2.552985591159    2.190986067409
 H   -1.484591574162   -1.524985591159    1.954986067409
 H   -2.028591574162   -3.232985591159    2.078986067409
 H   -0.778591574162   -2.603985591159    3.205986067409
 C    1.095408425838   -1.992985591159    1.281986067409
 H    1.961408425838   -2.472985591159    0.829986067409
 H    0.853408425838   -1.099985591159    0.708986067409
 C    1.477408425838   -1.561985591159    2.694986067409
 H    2.326408425838   -0.879985591159    2.628986067409
 H    0.618408425838   -1.054985591159    3.153986067409
 H    1.743408425838   -2.449985591159    3.277986067409
 H    0.243068425838   -4.000205591159    1.429216067409
 C    0.135408425838    0.401014408841   -2.626013932591
 O    0.489408425838   -0.576985591159   -1.989013932591
 N   -0.288591574162    1.526014408841   -2.022013932591
 C   -0.375591574162    1.839014408841   -0.616013932591
 C   -1.094591574162    3.173014408841   -0.452013932591
 C    0.979408425838    1.939014408841   -0.001013932591
 C   -1.133591574162    0.833014408841    0.189986067409
 H   -0.592591574162    2.272014408841   -2.595013932591
 H   -0.558591574162    3.954014408841   -0.999013932591
 H   -2.102591574162    3.047014408841   -0.859013932591
 H   -1.149591574162    3.429014408841    0.613986067409
 H   -0.659591574162   -0.134985591159    0.067986067409
 H   -1.095591574162    1.157014408841    1.236986067409
 H   -2.138591574162    0.850014408841   -0.192013932591
 H    0.821408425838    2.159014408841    1.051986067409
 H    1.503408425838    2.732014408841   -0.507013932591
 H    1.465408425838    0.976014408841   -0.135013932591
 H    0.153388425838    0.442014408841   -3.725102932591
