23
0 1 
 C   -1.800401816987   -0.772822750027   -3.403285946044
 H   -2.685401816987   -0.127822750027   -3.446285946044
 C   -2.295401816987   -2.218822750027   -3.338285946044
 H   -2.906401816987   -2.345822750027   -2.441285946044
 H   -2.901401816987   -2.424822750027   -4.235285946044
 H   -1.432401816987   -2.887822750027   -3.312285946044
 C   -1.064401816987   -0.346822750027   -2.150285946044
 H   -1.719401816987   -0.474822750027   -1.287285946044
 H   -0.160401816987   -0.943822750027   -2.044285946044
 H   -0.802401816987    0.718177249973   -2.267285946044
 H   -1.179151816987   -0.670232750027   -4.305239946044
 C    0.921598183013    1.199177249973    2.946714053956
 C    1.818598183013    0.174177249973    2.649714053956
 C    1.894598183013   -0.425822750027    1.366714053956
 C    1.014598183013    0.063177249973    0.386714053956
 C    0.111598183013    1.094177249973    0.693714053956
 C    0.062598183013    1.672177249973    1.962714053956
 H   -0.622401816987    2.494177249973    2.166714053956
 H   -0.559401816987    1.477177249973   -0.068285946044
 H    1.022598183013   -0.341822750027   -0.637285946044
 H    2.606598183013   -1.245822750027    1.081714053956
 H    2.421298183013   -0.018982750027    3.549406053956
 H    1.019478183013    1.569987249973    3.977694053956
