22
0 1 
 C   -0.204701964090   -2.333656031141   -1.889286438191
 H    0.337298035910   -1.375656031141   -1.950286438191
 H   -1.252701964090   -2.117656031141   -1.733286438191
 C    0.370298035910   -3.239656031141   -0.784286438191
 H    0.737298035910   -2.674656031141    0.056713561809
 H   -0.369701964090   -3.962656031141   -0.435286438191
 H    1.196731035910   -3.771086031141   -1.278844438191
 H   -0.053443964090   -2.902846031141   -2.818342238191
 C    0.831298035910    0.550343968859    0.291713561809
 C    0.334298035910    1.608343968859   -0.467286438191
 N   -0.893701964090    2.169343968859   -0.247286438191
 C   -1.657701964090    1.633343968859    0.750713561809
 C   -1.220701964090    0.566343968859    1.527713561809
 C    0.034298035910    0.012343968859    1.295713561809
 C    2.155298035910   -0.118656031141   -0.035286438191
 H    2.142298035910   -1.101656031141    0.448713561809
 H    2.212298035910   -0.286656031141   -1.119286438191
 H    0.390298035910   -0.842656031141    1.865713561809
 H   -1.865701964090    0.167343968859    2.304713561809
 H   -2.672701964090    2.033343968859    0.936713561809
 H    0.914298035910    1.983343968859   -1.320286438191
 H    3.052381035910    0.441743968859    0.266694561809
