11
0 1 
 C   -0.079729116202    0.345819011246   -0.447850606744
 H   -0.964729116202    0.990819011246   -0.490850606744
 C   -0.574729116202   -1.100180988754   -0.382850606744
 H   -1.185729116202   -1.227180988754    0.514149393256
 H   -1.180729116202   -1.306180988754   -1.279850606744
 H    0.288270883798   -1.769180988754   -0.356850606744
 C    0.656270883798    0.771819011246    0.805149393256
 H    0.001270883798    0.643819011246    1.668149393256
 H    1.560270883798    0.174819011246    0.911149393256
 H    0.918270883798    1.836819011246    0.688149393256
 H    0.541520883798    0.448409011246   -1.349804606744
