17
0 1 
 C    1.358545004994   -0.383909997848    0.683122997147
 O    2.610545004994    0.125090002152    0.231122997147
 C    0.222545004994    0.562090002152    0.168122997147
 N   -1.037454995006   -0.167909997848   -0.050877002853
 C   -1.117454995006   -0.631909997848   -1.461877002853
 C   -2.272454995006    0.462090002152    0.528122997147
 H    2.520545004994    0.290090002152   -0.742877002853
 H    1.127545004994   -1.384909997848    0.344122997147
 H    0.033545004994    1.381090002152    0.847122997147
 H    0.501545004994    0.992090002152   -0.813877002853
 H   -2.404454995006    1.555090002152    0.284122997147
 H   -0.890454995006    0.193090002152   -2.123877002853
 H   -0.365454995006   -1.401909997848   -1.568877002853
 H   -2.290434995006    0.421090002152    1.627211997147
 H   -3.107310995006   -0.175239997848    0.201285997147
 H   -2.070544995006   -1.066689997848   -1.797421002853
 H    1.466305004994   -0.555599997848    1.764283997147
