14
0 1 
 C   -0.410580000796   -0.711391743735   -0.645358490083
 H   -0.850580000796   -0.667391743735   -1.651358490083
 C   -1.504580000796   -0.290391743735    0.326641509917
 H   -1.802580000796    0.737608256265    0.090641509917
 H   -2.346580000796   -0.970391743735    0.214641509917
 H   -1.096580000796   -0.341391743735    1.341641509917
 C    0.777419999204    0.269608256265   -0.582358490083
 H    1.643419999204   -0.210391743735   -1.034358490083
 H    0.535419999204    1.162608256265   -1.155358490083
 C    1.159419999204    0.700608256265    0.830641509917
 H    2.008419999204    1.382608256265    0.764641509917
 H    0.300419999204    1.207608256265    1.289641509917
 H    1.425419999204   -0.187391743735    1.413641509917
 H   -0.074920000796   -1.737611743735   -0.435128490083
