20
0 1 
 C    1.335020909189   -0.912963735682   -3.070836195669
 H    1.407020909189    0.097036264318   -2.679836195669
 H    0.506020909189   -0.952963735682   -3.781836195669
 C    1.027020909189   -1.867963735682   -1.913836195669
 H    0.085020909189   -1.554963735682   -1.444836195669
 H    0.926020909189   -2.890963735682   -2.300836195669
 H    1.841020909189   -1.824963735682   -1.181836195669
 H    2.263080909189   -1.160013735682   -3.607190195669
 N   -2.156979090811    0.773036264318    1.031163804331
 C    0.371020909189    0.700036264318    0.967163804331
 C   -0.963979090811    0.091036264318    0.497163804331
 N    0.451020909189    1.164036264318    2.378163804331
 H   -0.977979090811   -0.967963735682    0.771163804331
 H   -1.006979090811    0.166036264318   -0.584836195669
 H    1.123020909189   -0.069963735682    0.860163804331
 H    0.598020909189    1.525036264318    0.305163804331
 H   -3.054063090811    0.212636264318    0.729182804331
 H   -2.010263090811    0.864916264318    2.117456804331
 H   -0.453169090811    1.625286264318    2.802070804331
 H    1.392230909189    1.709346264318    2.541755804331
