14
0 1 
 C    0.355682369941   -0.032422051822    0.946514301611
 H    0.458682369941    1.010577948178    1.278514301611
 C    1.536682369941   -0.416422051822    0.031514301611
 H    1.541682369941    0.250577948178   -0.851485698389
 H    2.471682369941   -0.300422051822    0.583514301611
 H    1.418682369941   -1.455422051822   -0.301485698389
 C   -0.965317630059   -0.196422051822    0.177514301611
 H   -1.103317630059   -1.243422051822   -0.093485698389
 H   -1.802317630059    0.113577948178    0.798514301611
 C   -0.964317630059    0.633577948178   -1.084485698389
 H   -1.911317630059    0.472577948178   -1.586485698389
 H   -0.838317630059    1.678577948178   -0.799485698389
 H   -0.127317630059    0.299577948178   -1.704485698389
 H    0.335632369941   -0.687032051822    1.830305301611
