24
0 1 
 C   -1.157990387633    0.442007401688    3.848310761743
 O   -1.093990387633   -0.526992598312    4.611310761743
 N   -0.940990387633    0.349007401688    2.539310761743
 H   -0.976990387633    1.153007401688    1.928310761743
 C   -0.589990387633   -0.905992598312    1.916310761743
 H   -0.648990387633   -1.693992598312    2.647310761743
 H   -1.311990387633   -1.078992598312    1.126310761743
 C    0.828009612367   -0.894992598312    1.373310761743
 O    1.199009612367    0.052007401688    0.683310761743
 N    1.618009612367   -1.920992598312    1.700310761743
 H    1.306009612367   -2.648992598312    2.335310761743
 H   -1.393209387633    1.435717401688    4.257230761743
 H    2.580313612367   -2.111932598312    1.202803761743
 C    0.770009612367    1.161007401688   -4.066689238257
 C    1.267009612367    0.103007401688   -3.307689238257
 C    0.470009612367   -0.434992598312   -2.303689238257
 C   -0.784990387633    0.119007401688   -2.071689238257
 C   -1.221990387633    1.186007401688   -2.848689238257
 N   -0.457990387633    1.722007401688   -3.846689238257
 H    1.350009612367    1.536007401688   -4.919689238257
 H   -2.236990387633    1.586007401688   -2.662689238257
 H   -1.429990387633   -0.279992598312   -1.294689238257
 H    0.826009612367   -1.289992598312   -1.733689238257
 H    2.225776612367   -0.381442598312   -3.544484238257
