19
-1 1 
 C    1.695145520043   -0.582637299340   -2.187169787690
 H    0.652145520043   -0.641637299340   -1.871169787690
 H    1.790145520043   -0.999637299340   -3.176169787690
 C    2.509145520043   -1.536637299340   -1.284169787690
 O    3.517145520043   -2.106637299340   -1.758169787690
 O    1.984145520043   -2.016637299340   -0.247169787690
 H    1.907025520043    0.490252700660   -2.305513987690
 C   -0.982854479957    0.728362700660    2.020830212310
 C   -0.906854479957    0.128362700660    0.737830212310
 C   -1.786854479957    0.617362700660   -0.242169787690
 C   -2.689854479957    1.648362700660    0.064830212310
 C   -2.738854479957    2.226362700660    1.333830212310
 C   -1.879854479957    1.753362700660    2.317830212310
 H   -0.194854479957   -0.691637299340    0.452830212310
 H   -1.778854479957    0.212362700660   -1.266169787690
 H   -3.360854479957    2.031362700660   -0.697169787690
 H   -3.423854479957    3.048362700660    1.537830212310
 H   -1.781974479957    2.124172700660    3.348810212310
 H   -0.380154479957    0.535202700660    2.920522212310
