18
0 1 
 C    0.318109938960   -0.898967870012   -1.554847364549
 O    0.672109938960   -1.876967870012   -0.917847364549
 N   -0.105890061040    0.226032129988   -0.950847364549
 C   -0.192890061040    0.539032129988    0.455152635451
 C   -0.911890061040    1.873032129988    0.619152635451
 C    1.162109938960    0.639032129988    1.070152635451
 C   -0.950890061040   -0.466967870012    1.261152635451
 H   -0.409890061040    0.972032129988   -1.523847364549
 H   -0.375890061040    2.654032129988    0.072152635451
 H   -1.919890061040    1.747032129988    0.212152635451
 H   -0.966890061040    2.129032129988    1.685152635451
 H   -0.476890061040   -1.434967870012    1.139152635451
 H   -0.912890061040   -0.142967870012    2.308152635451
 H   -1.955890061040   -0.449967870012    0.879152635451
 H    1.004109938960    0.859032129988    2.123152635451
 H    1.686109938960    1.432032129988    0.564152635451
 H    1.648109938960   -0.323967870012    0.936152635451
 H    0.336089938960   -0.857967870012   -2.653936364549
