21
-1 1 
 C    1.182742273937    2.649484913513    2.757265098535
 H    1.855742273937    2.225484913513    3.492265098535
 H    0.447742273937    3.271484913513    3.265265098535
 C    0.477742273937    1.450484913513    2.179265098535
 O    0.304742273937    0.435484913513    2.825265098535
 O    0.108742273937    1.553484913513    0.888265098535
 H   -0.135257726063    0.674484913513    0.573265098535
 C    0.399742273937   -0.424515086487   -3.988734901465
 H    0.883742273937   -1.342515086487   -4.354734901465
 H   -0.476257726063   -0.252515086487   -4.653734901465
 C    0.002742273937   -0.620515086487   -2.507734901465
 O    0.555742273937    0.069484913513   -1.610734901465
 O   -0.891257726063   -1.436515086487   -2.215734901465
 H    1.743392273937    3.257394913513    2.031927098535
 H    1.098322273937    0.421924913513   -4.063021854465
 C   -1.615257726063   -1.974515086487    1.016265098535
 O   -0.363257726063   -1.465515086487    0.564265098535
 H   -0.453257726063   -1.300515086487   -0.409734901465
 H   -1.846257726063   -2.975515086487    0.677265098535
 H   -2.413497726063   -1.309785086487    0.654389098535
 H   -1.507497726063   -2.146205086487    2.097426098535
