13
0 1 
 C    1.448794794033    1.170906468354   -0.586668718783
 O    0.549794794033    1.773906468354   -1.179668718783
 N    1.374794794033   -0.129093531646   -0.251668718783
 H    2.071794794033   -0.584093531646    0.357331281217
 C    0.194794794033   -0.903093531646   -0.559668718783
 H   -0.172205205967   -0.551093531646   -1.516668718783
 H    0.495794794033   -1.944093531646   -0.655668718783
 C   -0.897205205967   -0.738093531646    0.506331281217
 O   -2.069205205967   -1.016093531646    0.246331281217
 N   -0.557205205967   -0.232093531646    1.701331281217
 H    0.406794794033    0.013906468354    1.914331281217
 H   -1.293355205967   -0.068003531646    2.502054281217
 H    2.358374794033    1.724346468354   -0.310312718783
