13
1 1 
 C    1.075102890978    1.648676642888   -0.353073855045
 H    1.679102890978    1.384676642888    0.516926144955
 H    0.384102890978    2.444676642888   -0.053073855045
 N    0.309102890978    0.461676642888   -0.751073855045
 H    0.191102890978    0.306676642888   -1.749073855045
 C   -0.256897109022   -0.404323357112    0.071926144955
 N   -0.256897109022   -0.205323357112    1.367926144955
 H    0.167102890978    0.627676642888    1.748926144955
 H   -0.727897109022   -0.836323357112    1.982926144955
 N   -0.839897109022   -1.479323357112   -0.383073855045
 H   -0.891897109022   -1.640323357112   -1.394073855045
 H   -1.322897109022   -2.111323357112    0.215926144955
 H    1.723502890978    2.000336642888   -1.169104855045
