11
0 1 
 C    0.765861594381    0.517027494615   -0.988424243740
 C    1.262861594381   -0.540972505385   -0.229424243740
 C    0.465861594381   -1.078972505385    0.774575756260
 C   -0.789138405619   -0.524972505385    1.006575756260
 C   -1.226138405619    0.542027494615    0.229575756260
 N   -0.462138405619    1.078027494615   -0.768424243740
 H    1.345861594381    0.892027494615   -1.841424243740
 H   -2.241138405619    0.942027494615    0.415575756260
 H   -1.434138405619   -0.923972505385    1.783575756260
 H    0.821861594381   -1.933972505385    1.344575756260
 H    2.221628594381   -1.025422505385   -0.466219243740
