12
0 1 
 C    0.140683691083   -0.281786960310   -1.885147334342
 C    0.115683691083   -0.338786960310   -0.357147334342
 O    0.469683691083   -1.316786960310    0.279852665658
 N   -0.308316308917    0.786213039690    0.246852665658
 C   -0.395316308917    1.099213039690    1.652852665658
 H   -0.612316308917    1.532213039690   -0.326147334342
 H    0.008683691083    0.811213039690   -2.129147334342
 H   -0.914186308917    2.061903039690    1.771204665658
 H   -0.952891308917    0.359213039690    2.245735665658
 H    0.604083691083    1.172973039690    2.106455665658
 H    1.044873691083   -0.743026960310   -2.309054334342
 H   -0.694172308917   -0.919116960310   -2.211984334342
