12
0 1 
 C   -0.049833925482    0.567630922593    1.278177799577
 C    0.847166074518   -0.457369077407    0.981177799577
 C    0.923166074518   -1.057369077407   -0.301822200423
 C    0.043166074518   -0.568369077407   -1.281822200423
 C   -0.859833925482    0.462630922593   -0.974822200423
 C   -0.908833925482    1.040630922593    0.294177799577
 H   -1.593833925482    1.862630922593    0.498177799577
 H   -1.530833925482    0.845630922593   -1.736822200423
 H    0.051166074518   -0.973369077407   -2.305822200423
 H    1.635166074518   -1.877369077407   -0.586822200423
 H    1.449866074518   -0.650529077407    1.880869799577
 H    0.048046074518    0.938440922593    2.309157799577
