12
0 1 
 N   -1.567193485570    0.078452008707   -0.216236701228
 C    0.960806514430    0.005452008707   -0.280236701228
 C   -0.374193485570   -0.603547991293   -0.750236701228
 N    1.040806514430    0.469452008707    1.130763298772
 H   -0.388193485570   -1.662547991293   -0.476236701228
 H   -0.417193485570   -0.528547991293   -1.832236701228
 H    1.712806514430   -0.764547991293   -0.387236701228
 H    1.187806514430    0.830452008707   -0.942236701228
 H   -2.464277485570   -0.481947991293   -0.518217701228
 H   -1.420477485570    0.170332008707    0.870056298772
 H    0.136616514430    0.930702008707    1.554670298772
 H    1.982016514430    1.014762008707    1.294355298772
