23
0 1 
 C    0.802295383464    1.267236774365    2.771789569871
 H    1.428295383464    0.371236774365    2.842789569871
 C   -0.156704616536    1.030236774365    1.603789569871
 H    0.415295383464    0.879236774365    0.676789569871
 H   -0.741704616536    0.132236774365    1.828789569871
 H   -0.812704616536    1.897236774365    1.500789569871
 C    1.707295383464    2.426236774365    2.421789569871
 H    2.191295383464    2.228236774365    1.464789569871
 H    1.092295383464    3.327236774365    2.364789569871
 H    2.444295383464    2.511236774365    3.220789569871
 H    0.294965383464    1.454826774365    3.729609569871
 C   -1.416704616536    0.014236774365   -1.667210430129
 C   -0.090704616536    0.192236774365   -2.082210430129
 C    0.890295383464   -0.719763225635   -1.686210430129
 C    0.530295383464   -1.802763225635   -0.877210430129
 C   -0.794704616536   -1.970763225635   -0.459210430129
 C   -1.771704616536   -1.059763225635   -0.856210430129
 H   -2.823704616536   -1.174763225635   -0.557210430129
 H   -1.079704616536   -2.813763225635    0.168789569871
 H    1.283295383464   -2.525763225635   -0.580210430129
 H    1.927295383464   -0.590763225635   -2.025210430129
 H    0.174295383464    1.030236774365   -2.739210430129
 H   -2.217394616536    0.689726774365   -2.002773430129
