24
0 1 
 C    1.441861180245   -0.177012869109   -2.445130885531
 H    1.106861180245   -0.785012869109   -1.610130885531
 N    1.524861180245    1.198987130891   -1.978130885531
 H    1.590861180245    1.910987130891   -2.699130885531
 C    1.568861180245    1.537987130891   -0.679130885531
 O    1.564861180245    0.700987130891    0.222869114469
 C    1.684861180245    3.016987130891   -0.293130885531
 H    0.789861180245    3.312987130891    0.245869114469
 H    2.546861180245    3.152987130891    0.354869114469
 H    1.817871180245    3.687367130891   -1.155046885531
 H    2.437401180245   -0.551142869109   -2.726087885531
 H    0.712651180245   -0.233872869109   -3.266730885531
 C   -0.622138819755   -2.856012869109    0.362869114469
 H   -1.416138819755   -3.254012869109    1.021869114469
 H    0.108861180245   -0.868012869109    0.616869114469
 N   -0.757138819755   -1.407012869109    0.580869114469
 C   -1.854138819755   -0.884012869109    1.165869114469
 O   -2.902138819755   -1.500012869109    1.279869114469
 C   -1.701138819755    0.474987130891    1.798869114469
 H   -0.772138819755    0.922987130891    1.464869114469
 H   -2.528238819755    1.145627130891    1.522932114469
 H   -1.654248819755    0.357057130891    2.891523114469
 H    0.366391180245   -3.251002869109    0.639993114469
 H   -0.720018819755   -3.226822869109   -0.668109885531
