15
-1 1 
 C    0.918427531985    2.188042861290    2.961101285848
 H    1.591427531985    1.764042861290    3.696101285848
 H    0.183427531985    2.810042861290    3.469101285848
 C    0.213427531985    0.989042861290    2.383101285848
 O    0.040427531985   -0.025957138710    3.029101285848
 O   -0.155572468015    1.092042861290    1.092101285848
 H   -0.399572468015    0.213042861290    0.777101285848
 C    0.135427531985   -0.885957138710   -3.784898714152
 H    0.619427531985   -1.803957138710   -4.150898714152
 H   -0.740572468015   -0.713957138710   -4.449898714152
 C   -0.261572468015   -1.081957138710   -2.303898714152
 O    0.291427531985   -0.391957138710   -1.406898714152
 O   -1.155572468015   -1.897957138710   -2.011898714152
 H    1.479077531985    2.795952861290    2.235763285848
 H    0.834007531985   -0.039517138710   -3.859185667152
