15
0 1 
 C   -0.645279089966    0.616352292086   -0.260192537709
 C    0.680720910034    0.794352292086   -0.675192537709
 C    1.661720910034   -0.117647707914   -0.279192537709
 C    1.301720910034   -1.200647707914    0.529807462291
 C   -0.023279089966   -1.368647707914    0.947807462291
 C   -1.000279089966   -0.457647707914    0.550807462291
 H   -2.052279089966   -0.572647707914    0.849807462291
 H   -0.308279089966   -2.211647707914    1.575807462291
 H    2.054720910034   -1.923647707914    0.826807462291
 H    2.698720910034    0.011352292086   -0.618192537709
 H    0.945720910034    1.632352292086   -1.332192537709
 C   -1.745279089966    1.544352292086   -0.721192537709
 H   -1.585279089966    2.514352292086   -0.251192537709
 H   -2.700279089966    1.144352292086   -0.340192537709
 H   -1.792169089966    1.662282292086   -1.813846537709
