8
0 1 
 C   -0.290810261428    0.455838296522   -0.547850660998
 H    0.251189738572    1.413838296522   -0.608850660998
 H   -1.338810261428    0.671838296522   -0.391850660998
 C    0.284189738572   -0.450161703478    0.557149339002
 H    0.651189738572    0.114838296522    1.398149339002
 H   -0.455810261428   -1.173161703478    0.906149339002
 H    1.110622738572   -0.981591703478    0.062591339002
 H   -0.139552261428   -0.113351703478   -1.476906460998
