23
0 1 
 C    2.372050045905    2.901610921131   -0.893055177157
 H    1.648050045905    3.073610921131   -0.089055177157
 H    2.812050045905    1.903610921131   -0.799055177157
 H    3.167050045905    3.663610921131   -0.844055177157
 H    1.847770045905    2.990070921131   -1.856025177157
 C   -0.057949954095   -1.359389078869   -1.413055177157
 O    0.296050045905   -2.337389078869   -0.776055177157
 N   -0.481949954095   -0.234389078869   -0.809055177157
 C   -0.568949954095    0.078610921131    0.596944822843
 C   -1.287949954095    1.412610921131    0.760944822843
 C    0.786050045905    0.178610921131    1.211944822843
 C   -1.326949954095   -0.927389078869    1.402944822843
 H   -0.785949954095    0.511610921131   -1.382055177157
 H   -0.751949954095    2.193610921131    0.213944822843
 H   -2.295949954095    1.286610921131    0.353944822843
 H   -1.342949954095    1.668610921131    1.826944822843
 H   -0.852949954095   -1.895389078869    1.280944822843
 H   -1.288949954095   -0.603389078869    2.449944822843
 H   -2.331949954095   -0.910389078869    1.020944822843
 H    0.628050045905    0.398610921131    2.264944822843
 H    1.310050045905    0.971610921131    0.705944822843
 H    1.272050045905   -0.784389078869    1.077944822843
 H   -0.039969954095   -1.318389078869   -2.512144177157
