6
0 1 
 H    0.924445100000   -1.231722210000   -0.000537624724
 H   -0.924445100000   -1.231722210000   -0.000537624724
 H   -0.924445100000    1.231722210000   -0.000537624724
 H    0.924445100000    1.231722210000   -0.000537624724
 C   -0.000000000000    0.667287780000    0.000090305276
 C    0.000000000000   -0.667287780000    0.000090305276
