8
0 1 
 C    0.000000000671    0.000000000000   -0.763255407361
 C    0.000000000671    0.000000000000    0.763527692639
 H   -0.617111929329   -0.808243970000   -1.158974187361
 H   -0.391403849329    0.938556590000   -1.158974187361
 H    1.008515770671   -0.130312620000   -1.158974187361
 H   -1.008917029329    0.130312950000    1.157893502639
 H    0.391604180671   -0.938904250000    1.157893502639
 H    0.617312840671    0.808591300000    1.157893502639
