6
0 1 
 C    0.000098714814   -0.000223330572   -0.668062460000
 C    0.000098714814   -0.000223330572    0.668062460000
 H   -0.857945195186   -0.344163270572    1.232679330000
 H    0.856769814814    0.346822429428    1.232584950000
 H    0.856769814814    0.346822429428   -1.232584950000
 H   -0.857945195186   -0.344163270572   -1.232679330000
