15
0 1 
 C    0.000000000000   -1.391500000000    0.954103259464
 C    1.205074349366   -0.695750000000    0.954103259464
 C    1.205074349366    0.695750000000    0.954103259464
 C    0.000000000000    1.391500000000    0.954103259464
 C   -1.205074349366    0.695750000000    0.954103259464
 C   -1.205074349366   -0.695750000000    0.954103259464
 H    0.000000000000   -2.471500000000    0.954103259464
 H    2.140381785453   -1.235750000000    0.954103259464
 H    2.140381785453    1.235750000000    0.954103259464
 H    0.000000000000    2.471500000000    0.954103259464
 H   -2.140381785453    1.235750000000    0.954103259464
 H   -2.140381785453   -1.235750000000    0.954103259464
 S    0.000000000000    0.000000000000   -2.245896740536
 H    0.000000000000    0.961721285298   -1.319117624778
 H    0.000000000000   -0.961721285298   -1.319117624778
