24
0 1 
 C    1.400000000000   -1.600000000000   -1.391500000000
 C    2.605074349366   -1.600000000000   -0.695750000000
 C    2.605074349366   -1.600000000000    0.695750000000
 C    1.400000000000   -1.600000000000    1.391500000000
 C    0.194925650634   -1.600000000000    0.695750000000
 C    0.194925650634   -1.600000000000   -0.695750000000
 H    1.400000000000   -1.600000000000   -2.471500000000
 H    3.540381785453   -1.600000000000   -1.235750000000
 H    3.540381785453   -1.600000000000    1.235750000000
 H    1.400000000000   -1.600000000000    2.471500000000
 H   -0.740381785453   -1.600000000000    1.235750000000
 H   -0.740381785453   -1.600000000000   -1.235750000000
 C   -1.400000000000    1.600000000000    1.391500000000
 C   -0.194925650634    1.600000000000    0.695750000000
 C   -0.194925650634    1.600000000000   -0.695750000000
 C   -1.400000000000    1.600000000000   -1.391500000000
 C   -2.605074349366    1.600000000000   -0.695750000000
 C   -2.605074349366    1.600000000000    0.695750000000
 H   -1.400000000000    1.600000000000    2.471500000000
 H    0.740381785453    1.600000000000    1.235750000000
 H    0.740381785453    1.600000000000   -1.235750000000
 H   -1.400000000000    1.600000000000   -2.471500000000
 H   -3.540381785453    1.600000000000   -1.235750000000
 H   -3.540381785453    1.600000000000    1.235750000000
