22
0 1 
 N   -1.398038000000    2.300000000000    0.000000000000
 C   -0.698537102567    2.300000000000   -1.140130036279
 C    0.694181901972    2.300000000000   -1.195340218058
 C    1.406747100000    2.300000000000    0.000000000000
 C    0.694181901972    2.300000000000    1.195340218058
 C   -0.698537102567    2.300000000000    1.140130036279
 H   -1.281669224019    2.300000000000   -2.056884735711
 H    1.199925398797    2.300000000000   -2.152547758469
 H    2.488547100000    2.300000000000    0.000000000000
 H    1.199925398797    2.300000000000    2.152547758469
 H   -1.281669224019    2.300000000000    2.056884735711
 N    1.398038000000   -2.300000000000    0.000000000000
 C    0.698537102567   -3.440130036279    0.000000000000
 C   -0.694181901972   -3.495340218058    0.000000000000
 C   -1.406747100000   -2.300000000000    0.000000000000
 C   -0.694181901972   -1.104659781942    0.000000000000
 C    0.698537102567   -1.159869963721    0.000000000000
 H    1.281669224019   -4.356884735711    0.000000000000
 H   -1.199925398797   -4.452547758469    0.000000000000
 H   -2.488547100000   -2.300000000000    0.000000000000
 H   -1.199925398797   -0.147452241531    0.000000000000
 H    1.281669224019   -0.243115264289    0.000000000000
