24
0 1 
 C    0.000000000000    1.391500000000   -2.700000000000
 C    1.205074349366    0.695750000000   -2.700000000000
 C    1.205074349366   -0.695750000000   -2.700000000000
 C    0.000000000000   -1.391500000000   -2.700000000000
 C   -1.205074349366   -0.695750000000   -2.700000000000
 C   -1.205074349366    0.695750000000   -2.700000000000
 H    0.000000000000    2.471500000000   -2.700000000000
 H    2.140381785453    1.235750000000   -2.700000000000
 H    2.140381785453   -1.235750000000   -2.700000000000
 H    0.000000000000   -2.471500000000   -2.700000000000
 H   -2.140381785453   -1.235750000000   -2.700000000000
 H   -2.140381785453    1.235750000000   -2.700000000000
 C    0.000000000000    0.000000000000    1.308500000000
 C   -1.205074349366    0.000000000000    2.004250000000
 C   -1.205074349366    0.000000000000    3.395750000000
 C    0.000000000000    0.000000000000    4.091500000000
 C    1.205074349366    0.000000000000    3.395750000000
 C    1.205074349366    0.000000000000    2.004250000000
 H    0.000000000000    0.000000000000    0.228500000000
 H   -2.140381785453    0.000000000000    1.464250000000
 H   -2.140381785453    0.000000000000    3.935750000000
 H    0.000000000000    0.000000000000    5.171500000000
 H    2.140381785453    0.000000000000    3.935750000000
 H    2.140381785453    0.000000000000    1.464250000000
