17
0 1 
 C   -0.702865500000    0.647534787726   -1.217398756887
 C   -1.405731000000    0.647534787726    0.000000000000
 C   -0.702865500000    0.647534787726    1.217398756887
 C    0.702865500000    0.647534787726    1.217398756887
 C    1.405731000000    0.647534787726    0.000000000000
 C    0.702865500000    0.647534787726   -1.217398756887
 H   -1.250470500000    0.647534787726   -2.165878439366
 H   -2.500941000000    0.647534787726    0.000000000000
 H   -1.250470500000    0.647534787726    2.165878439366
 H    1.250470500000    0.647534787726    2.165878439366
 H    2.500941000000    0.647534787726    0.000000000000
 H    1.250470500000    0.647534787726   -2.165878439366
 C    0.000000000000   -3.152465212274    0.000000000000
 H    0.000000000000   -2.052962212274    0.000000000000
 H   -0.518310722034   -3.518966001778   -0.897740504671
 H    1.036621444068   -3.518966001778    0.000000000000
 H   -0.518310722034   -3.518966001778    0.897740504671
