12
0 1 
 C   -0.695750000000    0.000000000000   -1.205074349366
 C    0.695750000000    0.000000000000   -1.205074349366
 C    1.391500000000    0.000000000000    0.000000000000
 C    0.695750000000    0.000000000000    1.205074349366
 C   -0.695750000000    0.000000000000    1.205074349366
 C   -1.391500000000    0.000000000000    0.000000000000
 H   -1.235750000000    0.000000000000   -2.140381785453
 H    1.235750000000    0.000000000000   -2.140381785453
 H    2.471500000000    0.000000000000    0.000000000000
 H    1.235750000000    0.000000000000    2.140381785453
 H   -1.235750000000    0.000000000000    2.140381785453
 H   -2.471500000000    0.000000000000    0.000000000000
