11
0 1 
 N    0.000000000000    0.000000000000    1.392254556722
 C   -1.140130036279    0.000000000000    0.692753659289
 C   -1.195340218058    0.000000000000   -0.699965345250
 C    0.000000000000    0.000000000000   -1.412530543278
 C    1.195340218058    0.000000000000   -0.699965345250
 C    1.140130036279    0.000000000000    0.692753659289
 H   -2.056884735711    0.000000000000    1.275885780740
 H   -2.152547758469    0.000000000000   -1.205708842075
 H    0.000000000000    0.000000000000   -2.494330543278
 H    2.152547758469    0.000000000000   -1.205708842075
 H    2.056884735711    0.000000000000    1.275885780740
