24
0 1 
 C    0.000000000000    1.391500000000   -2.500000000000
 C    1.205074349366    0.695750000000   -2.500000000000
 C    1.205074349366   -0.695750000000   -2.500000000000
 C    0.000000000000   -1.391500000000   -2.500000000000
 C   -1.205074349366   -0.695750000000   -2.500000000000
 C   -1.205074349366    0.695750000000   -2.500000000000
 H    0.000000000000    2.471500000000   -2.500000000000
 H    2.140381785453    1.235750000000   -2.500000000000
 H    2.140381785453   -1.235750000000   -2.500000000000
 H    0.000000000000   -2.471500000000   -2.500000000000
 H   -2.140381785453   -1.235750000000   -2.500000000000
 H   -2.140381785453    1.235750000000   -2.500000000000
 C    0.000000000000    0.000000000000    1.108500000000
 C   -1.205074349366    0.000000000000    1.804250000000
 C   -1.205074349366    0.000000000000    3.195750000000
 C    0.000000000000    0.000000000000    3.891500000000
 C    1.205074349366    0.000000000000    3.195750000000
 C    1.205074349366    0.000000000000    1.804250000000
 H    0.000000000000    0.000000000000    0.028500000000
 H   -2.140381785453    0.000000000000    1.264250000000
 H   -2.140381785453    0.000000000000    3.735750000000
 H    0.000000000000    0.000000000000    4.971500000000
 H    2.140381785453    0.000000000000    3.735750000000
 H    2.140381785453    0.000000000000    1.264250000000
