24
0 1 
 C    0.700000000000   -1.800000000000   -1.391500000000
 C    1.905074349366   -1.800000000000   -0.695750000000
 C    1.905074349366   -1.800000000000    0.695750000000
 C    0.700000000000   -1.800000000000    1.391500000000
 C   -0.505074349366   -1.800000000000    0.695750000000
 C   -0.505074349366   -1.800000000000   -0.695750000000
 H    0.700000000000   -1.800000000000   -2.471500000000
 H    2.840381785453   -1.800000000000   -1.235750000000
 H    2.840381785453   -1.800000000000    1.235750000000
 H    0.700000000000   -1.800000000000    2.471500000000
 H   -1.440381785453   -1.800000000000    1.235750000000
 H   -1.440381785453   -1.800000000000   -1.235750000000
 C   -0.700000000000    1.800000000000    1.391500000000
 C    0.505074349366    1.800000000000    0.695750000000
 C    0.505074349366    1.800000000000   -0.695750000000
 C   -0.700000000000    1.800000000000   -1.391500000000
 C   -1.905074349366    1.800000000000   -0.695750000000
 C   -1.905074349366    1.800000000000    0.695750000000
 H   -0.700000000000    1.800000000000    2.471500000000
 H    1.440381785453    1.800000000000    1.235750000000
 H    1.440381785453    1.800000000000   -1.235750000000
 H   -0.700000000000    1.800000000000   -2.471500000000
 H   -2.840381785453    1.800000000000   -1.235750000000
 H   -2.840381785453    1.800000000000    1.235750000000
