24
0 1 
 C    0.000000000000    1.391500000000   -2.650000000000
 C    1.205074349366    0.695750000000   -2.650000000000
 C    1.205074349366   -0.695750000000   -2.650000000000
 C    0.000000000000   -1.391500000000   -2.650000000000
 C   -1.205074349366   -0.695750000000   -2.650000000000
 C   -1.205074349366    0.695750000000   -2.650000000000
 H    0.000000000000    2.471500000000   -2.650000000000
 H    2.140381785453    1.235750000000   -2.650000000000
 H    2.140381785453   -1.235750000000   -2.650000000000
 H    0.000000000000   -2.471500000000   -2.650000000000
 H   -2.140381785453   -1.235750000000   -2.650000000000
 H   -2.140381785453    1.235750000000   -2.650000000000
 C    0.000000000000    0.000000000000    1.258500000000
 C   -1.205074349366    0.000000000000    1.954250000000
 C   -1.205074349366    0.000000000000    3.345750000000
 C    0.000000000000    0.000000000000    4.041500000000
 C    1.205074349366    0.000000000000    3.345750000000
 C    1.205074349366    0.000000000000    1.954250000000
 H    0.000000000000    0.000000000000    0.178500000000
 H   -2.140381785453    0.000000000000    1.414250000000
 H   -2.140381785453    0.000000000000    3.885750000000
 H    0.000000000000    0.000000000000    5.121500000000
 H    2.140381785453    0.000000000000    3.885750000000
 H    2.140381785453    0.000000000000    1.414250000000
