22
0 1 
 N   -1.398038000000    4.000000000000    0.000000000000
 C   -0.698537102567    4.000000000000   -1.140130036279
 C    0.694181901972    4.000000000000   -1.195340218058
 C    1.406747100000    4.000000000000    0.000000000000
 C    0.694181901972    4.000000000000    1.195340218058
 C   -0.698537102567    4.000000000000    1.140130036279
 H   -1.281669224019    4.000000000000   -2.056884735711
 H    1.199925398797    4.000000000000   -2.152547758469
 H    2.488547100000    4.000000000000    0.000000000000
 H    1.199925398797    4.000000000000    2.152547758469
 H   -1.281669224019    4.000000000000    2.056884735711
 N    1.398038000000   -4.000000000000    0.000000000000
 C    0.698537102567   -5.140130036279    0.000000000000
 C   -0.694181901972   -5.195340218058    0.000000000000
 C   -1.406747100000   -4.000000000000    0.000000000000
 C   -0.694181901972   -2.804659781942    0.000000000000
 C    0.698537102567   -2.859869963721    0.000000000000
 H    1.281669224019   -6.056884735711    0.000000000000
 H   -1.199925398797   -6.152547758469    0.000000000000
 H   -2.488547100000   -4.000000000000    0.000000000000
 H   -1.199925398797   -1.847452241531    0.000000000000
 H    1.281669224019   -1.943115264289    0.000000000000
