15
0 1 
 C    0.000000000000   -1.391500000000    1.500165449213
 C    1.205074349366   -0.695750000000    1.500165449213
 C    1.205074349366    0.695750000000    1.500165449213
 C    0.000000000000    1.391500000000    1.500165449213
 C   -1.205074349366    0.695750000000    1.500165449213
 C   -1.205074349366   -0.695750000000    1.500165449213
 H    0.000000000000   -2.471500000000    1.500165449213
 H    2.140381785453   -1.235750000000    1.500165449213
 H    2.140381785453    1.235750000000    1.500165449213
 H    0.000000000000    2.471500000000    1.500165449213
 H   -2.140381785453    1.235750000000    1.500165449213
 H   -2.140381785453   -1.235750000000    1.500165449213
 S    0.000000000000    0.000000000000   -3.499834550787
 H    0.000000000000    0.961721285298   -2.573055435029
 H    0.000000000000   -0.961721285298   -2.573055435029
