15
0 1 
 C    0.000000000000   -1.391500000000    1.014776836103
 C    1.205074349366   -0.695750000000    1.014776836103
 C    1.205074349366    0.695750000000    1.014776836103
 C    0.000000000000    1.391500000000    1.014776836103
 C   -1.205074349366    0.695750000000    1.014776836103
 C   -1.205074349366   -0.695750000000    1.014776836103
 H    0.000000000000   -2.471500000000    1.014776836103
 H    2.140381785453   -1.235750000000    1.014776836103
 H    2.140381785453    1.235750000000    1.014776836103
 H    0.000000000000    2.471500000000    1.014776836103
 H   -2.140381785453    1.235750000000    1.014776836103
 H   -2.140381785453   -1.235750000000    1.014776836103
 S    0.000000000000    0.000000000000   -2.385223163897
 H    0.000000000000    0.961721285298   -1.458444048139
 H    0.000000000000   -0.961721285298   -1.458444048139
