24
0 1 
 C    0.000000000000    1.391500000000   -2.400000000000
 C    1.205074349366    0.695750000000   -2.400000000000
 C    1.205074349366   -0.695750000000   -2.400000000000
 C    0.000000000000   -1.391500000000   -2.400000000000
 C   -1.205074349366   -0.695750000000   -2.400000000000
 C   -1.205074349366    0.695750000000   -2.400000000000
 H    0.000000000000    2.471500000000   -2.400000000000
 H    2.140381785453    1.235750000000   -2.400000000000
 H    2.140381785453   -1.235750000000   -2.400000000000
 H    0.000000000000   -2.471500000000   -2.400000000000
 H   -2.140381785453   -1.235750000000   -2.400000000000
 H   -2.140381785453    1.235750000000   -2.400000000000
 C    0.000000000000    0.000000000000    1.008500000000
 C   -1.205074349366    0.000000000000    1.704250000000
 C   -1.205074349366    0.000000000000    3.095750000000
 C    0.000000000000    0.000000000000    3.791500000000
 C    1.205074349366    0.000000000000    3.095750000000
 C    1.205074349366    0.000000000000    1.704250000000
 H    0.000000000000    0.000000000000   -0.071500000000
 H   -2.140381785453    0.000000000000    1.164250000000
 H   -2.140381785453    0.000000000000    3.635750000000
 H    0.000000000000    0.000000000000    4.871500000000
 H    2.140381785453    0.000000000000    3.635750000000
 H    2.140381785453    0.000000000000    1.164250000000
