24
0 1 
 C    0.200000000000   -1.700000000000   -1.391500000000
 C    1.405074349366   -1.700000000000   -0.695750000000
 C    1.405074349366   -1.700000000000    0.695750000000
 C    0.200000000000   -1.700000000000    1.391500000000
 C   -1.005074349366   -1.700000000000    0.695750000000
 C   -1.005074349366   -1.700000000000   -0.695750000000
 H    0.200000000000   -1.700000000000   -2.471500000000
 H    2.340381785453   -1.700000000000   -1.235750000000
 H    2.340381785453   -1.700000000000    1.235750000000
 H    0.200000000000   -1.700000000000    2.471500000000
 H   -1.940381785453   -1.700000000000    1.235750000000
 H   -1.940381785453   -1.700000000000   -1.235750000000
 C   -0.200000000000    1.700000000000    1.391500000000
 C    1.005074349366    1.700000000000    0.695750000000
 C    1.005074349366    1.700000000000   -0.695750000000
 C   -0.200000000000    1.700000000000   -1.391500000000
 C   -1.405074349366    1.700000000000   -0.695750000000
 C   -1.405074349366    1.700000000000    0.695750000000
 H   -0.200000000000    1.700000000000    2.471500000000
 H    1.940381785453    1.700000000000    1.235750000000
 H    1.940381785453    1.700000000000   -1.235750000000
 H   -0.200000000000    1.700000000000   -2.471500000000
 H   -2.340381785453    1.700000000000   -1.235750000000
 H   -2.340381785453    1.700000000000    1.235750000000
