12
0 1 
 C    0.000000000000   -1.405731000000    0.000000000000
 C    1.217398756887   -0.702865500000    0.000000000000
 C    1.217398756887    0.702865500000    0.000000000000
 C    0.000000000000    1.405731000000    0.000000000000
 C   -1.217398756887    0.702865500000    0.000000000000
 C   -1.217398756887   -0.702865500000    0.000000000000
 H    0.000000000000   -2.500941000000    0.000000000000
 H    2.165878439366   -1.250470500000    0.000000000000
 H    2.165878439366    1.250470500000    0.000000000000
 H    0.000000000000    2.500941000000    0.000000000000
 H   -2.165878439366    1.250470500000    0.000000000000
 H   -2.165878439366   -1.250470500000    0.000000000000
