15
0 1 
 C    0.000000000000   -1.391500000000    2.106901215602
 C    1.205074349366   -0.695750000000    2.106901215602
 C    1.205074349366    0.695750000000    2.106901215602
 C    0.000000000000    1.391500000000    2.106901215602
 C   -1.205074349366    0.695750000000    2.106901215602
 C   -1.205074349366   -0.695750000000    2.106901215602
 H    0.000000000000   -2.471500000000    2.106901215602
 H    2.140381785453   -1.235750000000    2.106901215602
 H    2.140381785453    1.235750000000    2.106901215602
 H    0.000000000000    2.471500000000    2.106901215602
 H   -2.140381785453    1.235750000000    2.106901215602
 H   -2.140381785453   -1.235750000000    2.106901215602
 S    0.000000000000    0.000000000000   -4.893098784398
 H    0.000000000000    0.961721285298   -3.966319668641
 H    0.000000000000   -0.961721285298   -3.966319668641
