24
0 1 
 C    0.000000000000    1.391500000000   -2.350000000000
 C    1.205074349366    0.695750000000   -2.350000000000
 C    1.205074349366   -0.695750000000   -2.350000000000
 C    0.000000000000   -1.391500000000   -2.350000000000
 C   -1.205074349366   -0.695750000000   -2.350000000000
 C   -1.205074349366    0.695750000000   -2.350000000000
 H    0.000000000000    2.471500000000   -2.350000000000
 H    2.140381785453    1.235750000000   -2.350000000000
 H    2.140381785453   -1.235750000000   -2.350000000000
 H    0.000000000000   -2.471500000000   -2.350000000000
 H   -2.140381785453   -1.235750000000   -2.350000000000
 H   -2.140381785453    1.235750000000   -2.350000000000
 C    0.000000000000    0.000000000000    0.958500000000
 C   -1.205074349366    0.000000000000    1.654250000000
 C   -1.205074349366    0.000000000000    3.045750000000
 C    0.000000000000    0.000000000000    3.741500000000
 C    1.205074349366    0.000000000000    3.045750000000
 C    1.205074349366    0.000000000000    1.654250000000
 H    0.000000000000    0.000000000000   -0.121500000000
 H   -2.140381785453    0.000000000000    1.114250000000
 H   -2.140381785453    0.000000000000    3.585750000000
 H    0.000000000000    0.000000000000    4.821500000000
 H    2.140381785453    0.000000000000    3.585750000000
 H    2.140381785453    0.000000000000    1.114250000000
