24
0 1 
 C    0.000000000000    1.391500000000   -2.750000000000
 C    1.205074349366    0.695750000000   -2.750000000000
 C    1.205074349366   -0.695750000000   -2.750000000000
 C    0.000000000000   -1.391500000000   -2.750000000000
 C   -1.205074349366   -0.695750000000   -2.750000000000
 C   -1.205074349366    0.695750000000   -2.750000000000
 H    0.000000000000    2.471500000000   -2.750000000000
 H    2.140381785453    1.235750000000   -2.750000000000
 H    2.140381785453   -1.235750000000   -2.750000000000
 H    0.000000000000   -2.471500000000   -2.750000000000
 H   -2.140381785453   -1.235750000000   -2.750000000000
 H   -2.140381785453    1.235750000000   -2.750000000000
 C    0.000000000000    0.000000000000    1.358500000000
 C   -1.205074349366    0.000000000000    2.054250000000
 C   -1.205074349366    0.000000000000    3.445750000000
 C    0.000000000000    0.000000000000    4.141500000000
 C    1.205074349366    0.000000000000    3.445750000000
 C    1.205074349366    0.000000000000    2.054250000000
 H    0.000000000000    0.000000000000    0.278500000000
 H   -2.140381785453    0.000000000000    1.514250000000
 H   -2.140381785453    0.000000000000    3.985750000000
 H    0.000000000000    0.000000000000    5.221500000000
 H    2.140381785453    0.000000000000    3.985750000000
 H    2.140381785453    0.000000000000    1.514250000000
