15
0 1 
 C    0.000000000000   -1.391500000000    1.803533332408
 C    1.205074349366   -0.695750000000    1.803533332408
 C    1.205074349366    0.695750000000    1.803533332408
 C    0.000000000000    1.391500000000    1.803533332408
 C   -1.205074349366    0.695750000000    1.803533332408
 C   -1.205074349366   -0.695750000000    1.803533332408
 H    0.000000000000   -2.471500000000    1.803533332408
 H    2.140381785453   -1.235750000000    1.803533332408
 H    2.140381785453    1.235750000000    1.803533332408
 H    0.000000000000    2.471500000000    1.803533332408
 H   -2.140381785453    1.235750000000    1.803533332408
 H   -2.140381785453   -1.235750000000    1.803533332408
 S    0.000000000000    0.000000000000   -4.196466667592
 H    0.000000000000    0.961721285298   -3.269687551835
 H    0.000000000000   -0.961721285298   -3.269687551835
