10
0 1 
 C    0.000000000000    1.950000000000    0.000000000000
 H    0.000000000000    3.049503000000    0.000000000000
 H   -0.518310722034    1.583499210497    0.897740504671
 H   -0.518310722034    1.583499210497   -0.897740504671
 H    1.036621444068    1.583499210497    0.000000000000
 C    0.000000000000   -1.950000000000    0.000000000000
 H    0.000000000000   -3.049503000000    0.000000000000
 H    0.518310722034   -1.583499210497   -0.897740504671
 H    0.518310722034   -1.583499210497    0.897740504671
 H   -1.036621444068   -1.583499210497    0.000000000000
