24
0 1 
 C    0.000000000000    1.391500000000   -3.750000000000
 C    1.205074349366    0.695750000000   -3.750000000000
 C    1.205074349366   -0.695750000000   -3.750000000000
 C    0.000000000000   -1.391500000000   -3.750000000000
 C   -1.205074349366   -0.695750000000   -3.750000000000
 C   -1.205074349366    0.695750000000   -3.750000000000
 H    0.000000000000    2.471500000000   -3.750000000000
 H    2.140381785453    1.235750000000   -3.750000000000
 H    2.140381785453   -1.235750000000   -3.750000000000
 H    0.000000000000   -2.471500000000   -3.750000000000
 H   -2.140381785453   -1.235750000000   -3.750000000000
 H   -2.140381785453    1.235750000000   -3.750000000000
 C    0.000000000000    0.000000000000    2.358500000000
 C   -1.205074349366    0.000000000000    3.054250000000
 C   -1.205074349366    0.000000000000    4.445750000000
 C    0.000000000000    0.000000000000    5.141500000000
 C    1.205074349366    0.000000000000    4.445750000000
 C    1.205074349366    0.000000000000    3.054250000000
 H    0.000000000000    0.000000000000    1.278500000000
 H   -2.140381785453    0.000000000000    2.514250000000
 H   -2.140381785453    0.000000000000    4.985750000000
 H    0.000000000000    0.000000000000    6.221500000000
 H    2.140381785453    0.000000000000    4.985750000000
 H    2.140381785453    0.000000000000    2.514250000000
