7
-1 1 
 C   -0.596926895507    1.290058434744    0.165500689562
 C    0.033073104493   -0.073941565256   -0.008499310438
 O   -0.623926895507   -1.092941565256    0.315500689562
 O    1.190073104493   -0.126941565256   -0.470499310438
 H   -1.470926895507    1.353058434744   -0.485499310438
 H    0.100073104493    2.077058434744   -0.134499310438
 H   -0.900586895507    1.450218434744    1.210550689562
