16
0 1 
 C   -2.776827641370    0.584530475815   -0.758960761322
 C   -0.962827641370    0.304530475815    0.973039238678
 C   -1.347827641370    0.279530475815   -0.365960761322
 C    0.350172358630    0.028530475815    1.343039238678
 C   -0.390827641370   -0.022469524185   -1.333960761322
 C    1.294172358630   -0.272469524185    0.367039238678
 C    0.924172358630   -0.298469524185   -0.972960761322
 O    2.580172358630   -0.542469524185    0.727039238678
 H   -1.690827641370    0.552530475815    1.733039238678
 H    0.644172358630    0.051530475815    2.383039238678
 H   -2.777827641370    1.093530475815   -1.723960761322
 H   -3.183827641370    1.281530475815   -0.030960761322
 H   -0.673827641370   -0.045469524185   -2.379960761322
 H    1.656172358630   -0.529469524185   -1.735960761322
 H    3.149172358630   -0.682469524185   -0.038960761322
 H   -3.426001641370   -0.300639524185   -0.829970761322
