13
1 1 
 C   -1.019255920257   -0.572282542839    1.607272524332
 C    0.249744079743    0.127717457161   -0.397727475668
 N   -0.461255920257    1.236717457161   -0.494727475668
 N    0.011744079743   -0.740282542839    0.573272524332
 N    1.209744079743   -0.109282542839   -1.269727475668
 H   -1.144255920257    1.449717457161    0.211272524332
 H   -0.228255920257    1.944717457161   -1.182727475668
 H    0.620744079743   -1.543282542839    0.642272524332
 H    1.797744079743   -0.922282542839   -1.172727475668
 H    1.415744079743    0.567717457161   -1.987727475668
 H   -1.865255920257    0.005717457161    1.230272524332
 H   -0.591255920257   -0.043282542839    2.462272524332
 H   -1.405695920257   -1.544892542839    1.945952524332
