22
0 1 
 C   -1.180059985392    1.863786657131    1.498518592196
 C   -0.119059985392    2.132786657131    2.563518592196
 C   -1.008059985392    0.586786657131    0.737518592196
 C   -1.901059985392   -0.425213342869    0.696518592196
 C    0.093940014608    0.200786657131   -0.120481407804
 C   -0.209059985392   -1.083213342869   -0.626481407804
 C    1.318940014608    0.778786657131   -0.493481407804
 C    0.659940014608   -1.785213342869   -1.452481407804
 C    2.175940014608    0.076786657131   -1.354481407804
 C    1.847940014608   -1.198213342869   -1.822481407804
 N   -1.429059985392   -1.432213342869   -0.107481407804
 H   -2.169059985392    1.868786657131    1.955518592196
 H   -1.164059985392    2.671786657131    0.772518592196
 H    0.858940014608    2.186786657131    2.086518592196
 H   -2.841059985392   -0.442213342869    1.237518592196
 H   -1.933059985392   -2.291213342869   -0.295481407804
 H    1.582940014608    1.756786657131   -0.127481407804
 H    0.389940014608   -2.763213342869   -1.819481407804
 H    3.099940014608    0.531786657131   -1.662481407804
 H    2.520940014608   -1.718213342869   -2.489481407804
 H   -0.134909985392    1.311806657131    3.295458592196
 H   -0.351019985392    3.119336657131    2.991198592196
