8
0 1 
 C   -0.357972250478    0.560936638841   -0.391125172720
 C    0.354027749522   -0.567063361159    0.385874827280
 H   -1.437972250478    0.440936638841   -0.328125172720
 H   -0.086972250478    1.517936638841    0.045874827280
 H   -0.045972250478    0.547936638841   -1.434125172720
 H    0.009027749522   -0.527063361159    1.416874827280
 H    1.417027749522   -0.327063361159    0.373874827280
 H    0.191827749522   -1.579733361159   -0.011859172720
