10
-1 1 
 C    1.092694266404    0.036867329165    0.071761725547
 C    1.310694266404    0.363867329165   -1.395238274453
 C   -0.393305733596   -0.105132670835    0.381761725547
 O   -0.969305733596    0.866867329165    0.920761725547
 O   -0.987305733596   -1.167132670835    0.060761725547
 H    1.586694266404   -0.912132670835    0.276761725547
 H    1.556694266404    0.801867329165    0.691761725547
 H    1.075694266404    1.418867329165   -1.542238274453
 H    0.593694266404   -0.212132670835   -1.980238274453
 H    2.306355266404    0.149277329165   -1.810699274453
