11
0 1 
 C    0.451802911675   -0.378258325035   -0.101350720194
 C    0.603802911675    1.041741674965    0.488649279806
 C   -1.016197088325   -0.699258325035   -0.386350720194
 H    1.017802911675   -0.453258325035   -1.029350720194
 H    0.848802911675   -1.102258325035    0.598649279806
 H   -0.056197088325    1.141741674965    1.349649279806
 H    0.255802911675    1.744741674965   -0.271350720194
 H   -1.637197088325    0.015741674965    0.151649279806
 H   -1.200197088325   -0.523258325035   -1.448350720194
 H    1.624241561675    1.330017674965    0.781229279806
 H   -1.322292088325   -1.727501225035   -0.143410720194
