10
-1 1 
 C    0.168304660420   -0.371498900207    1.005628284107
 C   -0.940695339580   -1.399498900207    0.985628284107
 C    0.233304660420    0.394501099793   -0.303371715893
 O    0.703304660420   -0.212498900207   -1.299371715893
 O   -0.145695339580    1.590501099793   -0.340371715893
 H   -0.037695339580    0.332501099793    1.800628284107
 H    1.128304660420   -0.853498900207    1.200628284107
 H   -0.682695339580   -2.151498900207    0.238628284107
 H   -1.887966339580   -0.906188900207    0.722329284107
 H   -0.950807339580   -1.901498900207    1.964348284107
