18
0 1 
 C   -1.552161768808   -0.825842422839    1.054502495216
 C   -1.111161768808   -2.227842422839    1.493502495216
 C   -0.504161768808   -0.084842422839    0.256502495216
 C    0.512838231192    0.623157577161    0.906502495216
 C   -0.511161768808   -0.130842422839   -1.129497504784
 C    1.497838231192    1.283157577161    0.181502495216
 C    0.464838231192    0.529157577161   -1.854497504784
 C    1.470838231192    1.242157577161   -1.202497504784
 H   -2.462161768808   -0.901842422839    0.457502495216
 H   -1.800161768808   -0.238842422839    1.940502495216
 H   -1.959161768808   -2.728842422839    1.952502495216
 H    0.524838231192    0.670157577161    1.982502495216
 H   -1.274161768808   -0.691842422839   -1.650497504784
 H    2.268838231192    1.847157577161    0.678502495216
 H    0.468838231192    0.450157577161   -2.929497504784
 H    2.237838231192    1.748157577161   -1.773497504784
 H   -0.294801768808   -2.161569422839    2.227777495216
 H   -0.897431768808   -2.853780422839    0.614572495216
