15
0 1 
 C   -0.650345433401   -2.334066682398   -0.319403536538
 C    1.298654566599    0.745933317602    0.734596463462
 C    0.922654566599   -0.583066682398    0.549596463462
 C    0.495654566599    1.770933317602    0.243596463462
 C   -0.250345433401   -0.898066682398   -0.129403536538
 C   -0.679345433401    1.461933317602   -0.431403536538
 C   -1.049345433401    0.131933317602   -0.616403536538
 H    2.210654566599    0.981933317602    1.258596463462
 H    1.532654566599   -1.378066682398    0.946596463462
 H    0.782654566599    2.803933317602    0.387596463462
 H   -1.308345433401    2.257933317602   -0.807403536538
 H   -1.686345433401   -2.392066682398   -0.656403536538
 H   -0.597345433401   -2.825066682398    0.654596463462
 H   -1.971345433401   -0.087066682398   -1.131403536538
 H   -0.005405433401   -2.880396682398   -1.023373536538
