10
-1 1 
 C   -0.786222154423   -0.537587369818   -0.515024338942
 C   -0.572222154423   -1.901587369818    0.128975661058
 C    0.180777845577    0.523412630182   -0.008024338942
 O    1.320777845577    0.207412630182    0.352975661058
 O   -0.184222154423    1.705412630182    0.010975661058
 H   -0.633222154423   -0.641587369818   -1.590024338942
 H   -1.809222154423   -0.197587369818   -0.358024338942
 H    0.473777845577   -2.186587369818    0.001975661058
 H   -1.235382154423   -2.643211069818   -0.340294338942
 H   -0.811642154423   -1.878300569818    1.202355661058
