13
1 1 
 C   -1.851030143944    0.227573760976   -0.721853619664
 C    0.449969856056   -0.060426239024    0.169146380336
 N    0.297969856056    0.921573760976    1.040146380336
 N   -0.529030143944   -0.414426239024   -0.655853619664
 N    1.596969856056   -0.708426239024    0.135146380336
 H   -0.540030143944    1.493573760976    1.003146380336
 H    1.056969856056    1.175573760976    1.650146380336
 H   -0.340030143944   -1.161426239024   -1.308853619664
 H    1.743969856056   -1.446426239024   -0.534853619664
 H    2.349969856056   -0.448426239024    0.753146380336
 H   -1.791030143944    1.113573760976   -1.357853619664
 H   -2.156030143944    0.530573760976    0.279146380336
 H   -2.620030143944   -0.450576239024   -1.120303619664
