8
0 1 
 C    0.738202714390    0.133920349079   -0.127445646184
 C   -0.739797285610   -0.138079650921    0.124554353816
 H    1.146202714390   -0.615079650921   -0.805445646184
 H    0.857202714390    1.118920349079   -0.574445646184
 H    1.282202714390    0.102920349079    0.816554353816
 H   -1.087797285610    0.590920349079    0.857554353816
 H   -0.858817285610   -1.149757650921    0.539694353816
 H   -1.320007285610    0.001600349079   -0.799485646184
