15
0 1 
 C    1.732207594603   -1.747764522247   -0.066940468673
 C   -1.673792405397   -0.028764522247    0.215059531327
 C   -0.651792405397   -1.020764522247    0.157059531327
 C   -1.343792405397    1.332235477753    0.063059531327
 C    0.678207594603   -0.678764522247   -0.045940468673
 C    0.021207594603    1.691235477753   -0.135940468673
 C    1.019207594603    0.678235477753   -0.173940468673
 H   -2.694792405397   -0.328764522247    0.368059531327
 H   -0.921792405397   -2.058764522247    0.277059531327
 H   -2.112792405397    2.093235477753    0.097059531327
 H    0.297207594603    2.728235477753   -0.265940468673
 H    2.544207594603   -1.437764522247   -0.725940468673
 H    1.294207594603   -2.645764522247   -0.498940468673
 H    2.051207594603    0.960235477753   -0.320940468673
 H    2.144746594603   -1.997404522247    0.921739531327
