22
0 1 
 C    1.869289766512   -1.301387757151   -1.311233184746
 C    1.102289766512   -2.191387757151   -2.296233184746
 C    1.054289766512   -0.147387757151   -0.823233184746
 C    1.075289766512    1.122612242849   -1.296233184746
 C    0.062289766512   -0.177387757151    0.204766815254
 C   -0.468710233488    1.130612242849    0.318766815254
 C   -0.401710233488   -1.169387757151    1.075766815254
 C   -1.462710233488    1.449612242849    1.220766815254
 C   -1.387710233488   -0.844387757151    1.987766815254
 C   -1.906710233488    0.450612242849    2.058766815254
 N    0.164289766512    1.894612242849   -0.618233184746
 H    2.213289766512   -1.892387757151   -0.462233184746
 H    2.751289766512   -0.914387757151   -1.820233184746
 H    1.809289766512   -2.866387757151   -2.767233184746
 H    1.719289766512    1.475612242849   -2.097233184746
 H    0.007289766512    2.881612242849   -0.793233184746
 H    0.016289766512   -2.164387757151    1.051766815254
 H   -1.865710233488    2.451612242849    1.276766815254
 H   -1.757710233488   -1.602387757151    2.668766815254
 H   -2.677710233488    0.672612242849    2.786766815254
 H    0.643249766512   -1.575337757151   -3.083483184746
 H    0.384429766512   -2.812377757151   -1.740303184746
