8
0 1 
 C    0.186185518068   -0.724933587484   -0.004921299738
 C   -0.191814481932    0.725066412516    0.007078700262
 H   -0.019814481932   -1.163933587484   -0.980921299738
 H    1.252185518068   -0.821933587484    0.193078700262
 H   -0.372814481932   -1.265933587484    0.759078700262
 H    0.413185518068    1.242066412516   -0.738921299738
 H   -1.253914481932    0.853376412516   -0.248821299738
 H    0.048195518068    1.154776412516    0.990818700262
