8
0 1 
 C   -0.073830311731    0.003699253851   -0.768748879227
 C    0.080169688269   -0.006300746149    0.768251120773
 H    0.764169688269   -0.522300746149   -1.225748879227
 H   -0.998830311731   -0.496300746149   -1.043748879227
 H   -0.121830311731    1.023699253851   -1.147748879227
 H   -0.662830311731    0.686699253851    1.166251120773
 H    1.078359688269    0.341079253851    1.073111120773
 H   -0.134520311731   -1.001900746149    1.183811120773
