9
0 1 
 C   -0.704998055168   -0.773504740411   -1.001813673745
 C    0.077001944832    0.013495259589    0.024186326255
 O    1.285001944832   -0.158504740411    0.171186326255
 N   -0.610998055168    0.866495259589    0.764186326255
 H   -1.589998055168   -0.209504740411   -1.302813673745
 H   -1.037998055168   -1.695504740411   -0.523813673745
 H   -0.092998055168    1.457495259589    1.396186326255
 H   -1.600998055168    0.986495259589    0.628186326255
 H   -0.105058055168   -1.013481740411   -1.892027673745
