8
0 1 
 C    0.032993905036   -0.297989920259   -0.681102498548
 C   -0.043006094964    0.301010079741    0.675897501452
 H    0.724993905036    0.285010079741   -1.286102498548
 H    0.407993905036   -1.320989920259   -0.631102498548
 H   -0.956006094964   -0.293989920259   -1.134102498548
 H    0.987993905036    0.399010079741    1.015897501452
 H   -0.509906094964    1.295410079741    0.732207501452
 H   -0.535856094964   -0.400410920259    1.365177501452
