8
0 1 
 C   -0.138354461737    0.008387210840    0.752031087386
 C    0.144645538263   -0.006612789160   -0.752968912614
 H    0.704645538263    0.451387210840    1.285031087386
 H   -1.031354461737    0.604387210840    0.950031087386
 H   -0.312354461737   -1.004612789160    1.112031087386
 H   -0.717354461737   -0.460612789160   -1.233968912614
 H    1.027385538263   -0.628834789160   -0.961811912614
 H    0.254125538263    1.017158210840   -1.140145912614
