8
0 1 
 C    0.336713157343    0.328019241429    0.601148440518
 C   -0.336286842657   -0.329980758571   -0.604851559482
 H    1.420713157343    0.312019241429    0.483148440518
 H    0.012713157343    1.357019241429    0.721148440518
 H    0.074713157343   -0.191980758571    1.522148440518
 H   -1.417286842657   -0.272980758571   -0.478851559482
 H   -0.036092842657   -1.385690758571   -0.678104699482
 H   -0.059835842657    0.204969241429   -1.525396659482
