11
0 1 
 C   -0.479246189166   -0.049881185459   -0.351515988841
 C   -0.242246189166    1.007118814541    0.666484011159
 C    0.682753810834   -0.964881185459   -0.341515988841
 H   -0.557246189166    0.418118814541   -1.334515988841
 H   -1.397246189166   -0.592881185459   -0.138515988841
 H   -0.707246189166    1.942118814541    0.376484011159
 H   -0.624246189166    0.680118814541    1.635484011159
 H    0.820753810834   -1.468881185459   -1.299515988841
 H    0.570753810834   -1.691881185459    0.464484011159
 H    0.854711810834    1.074788814541    0.712344011159
 H    1.501018810834   -0.270491185459   -0.100145988841
