11
0 1 
 C   -0.382189965830    0.187083082936    0.330048233610
 C   -0.385189965830    0.504083082936   -1.185951766390
 C    0.752810034170   -0.670916917064    0.884048233610
 H   -0.382189965830    1.127083082936    0.874048233610
 H   -1.274189965830   -0.405916917064    0.522048233610
 H   -1.277189965830    1.087083082936   -1.416951766390
 H   -0.471189965830   -0.437916917064   -1.729951766390
 H    0.825810034170   -1.578916917064    0.275048233610
 H    1.701810034170   -0.130916917064    0.792048233610
 H    0.487046034170    1.043454082936   -1.583801766390
 H    0.563575034170   -0.945056917064    1.932398233610
