14
0 1 
 C   -0.333505678749    0.238864834876    0.007282924363
 C   -0.328505678749   -0.675135165124    1.239282924363
 C    0.959494321251    1.078864834876    0.012282924363
 C   -0.351505678749   -0.615135165124   -1.256717075637
 H   -1.192505678749    0.904864834876    0.025282924363
 H    0.100494321251   -0.122135165124    2.076282924363
 H    0.313494321251   -1.534135165124    1.057282924363
 H    1.833494321251    0.430864834876   -0.067717075637
 H    0.937494321251    1.768864834876   -0.828717075637
 H    1.025494321251    1.663864834876    0.929282924363
 H   -1.299505678749   -1.116135165124   -1.411717075637
 H   -0.193505678749    0.030864834876   -2.120717075637
 H    0.450494321251   -1.354135165124   -1.235717075637
 H   -1.332209678749   -0.999737165124    1.551071924363
