9
0 1 
 C    0.367325592003   -1.273556080805    0.536210738671
 C    0.030325592003    0.059443919195   -0.022789261329
 O    0.867325592003    0.736443919195   -0.628789261329
 N   -1.195674407997    0.464443919195    0.130210738671
 H   -1.402674407997    1.366443919195   -0.284789261329
 H   -1.881674407997   -0.221556080805    0.392210738671
 H    1.438325592003   -1.441556080805    0.402210738671
 H   -0.150674407997   -2.015556080805   -0.053789261329
 H    0.109965592003   -1.372596080805    1.601083738671
