8
0 1 
 C   -0.510954473391    0.135807928878    0.545264642878
 C    0.507045526609   -0.138192071122   -0.550735357122
 H   -1.149954473391   -0.726192071122    0.717264642878
 H    0.017045526609    0.353807928878    1.471264642878
 H   -1.125954473391    0.993807928878    0.274264642878
 H    1.164045526609   -0.952192071122   -0.239735357122
 H    1.114045526609    0.759807928878   -0.652735357122
 H    0.027315526609   -0.400652071122   -1.505184357122
