11
0 1 
 C   -0.546361264361    0.005453033131   -0.084581837063
 C    0.441638735639    0.492453033131   -1.146581837063
 C    0.070638735639   -0.497546966869    1.222418162937
 H   -1.222361264361    0.820453033131    0.144418162937
 H   -1.142361264361   -0.809546966869   -0.501581837063
 H    1.286638735639   -0.185546966869   -1.171581837063
 H    0.651638735639    0.303453033131    1.670418162937
 H    0.852868735639    1.475933033131   -0.875197837063
 H   -0.044071264361    0.521233033131   -2.133118837063
 H   -0.717821264361   -0.781046966869    1.935132162937
 H    0.741298735639   -1.349206966869    1.035643162937
