11
0 1 
 C   -0.458314124626   -0.434292875368   -0.010117804867
 C    0.913685875374   -0.538292875368   -0.635117804867
 C   -0.495314124626    0.938707124632    0.647882195133
 H   -0.574314124626   -1.234292875368    0.722882195133
 H   -1.243314124626   -0.503292875368   -0.759117804867
 H    1.263685875374   -1.569292875368   -0.686117804867
 H    0.857685875374   -0.107292875368   -1.632117804867
 H   -1.007314124626    1.619707124632   -0.026117804867
 H    1.573955875374    0.089667124632   -0.018907804867
 H    0.561195875374    1.235497124632    0.723402195133
 H   -0.955994124626    0.872687124632    1.644582195133
