15
0 1 
 C    2.428095270477    0.020841041756    0.159105239560
 C    0.188095270477   -0.418158958244    1.128105239560
 C    0.943095270477    0.001841041756    0.048105239560
 C   -1.212904729523   -0.425158958244    1.065105239560
 C    0.303095270477    0.422841041756   -1.119894760440
 C   -1.855904729523   -0.015158958244   -0.098894760440
 C   -1.097904729523    0.414841041756   -1.201894760440
 H    0.698095270477   -0.738158958244    2.025105239560
 H   -1.790904729523   -0.750158958244    1.918105239560
 H    2.821095270477   -0.169158958244   -0.834894760440
 H    2.712095270477   -0.806158958244    0.814105239560
 H    0.896095270477    0.756841041756   -1.959894760440
 H   -2.936904729523   -0.031158958244   -0.146894760440
 H   -1.595904729523    0.737841041756   -2.108894760440
 H    2.819975270477    0.977641041756    0.534535239560
