8
0 1 
 C    0.655428002327    0.169045992812   -0.347607775147
 C   -0.658571997673   -0.165954007188    0.346392224853
 H    1.256428002327    0.831045992812    0.274392224853
 H    1.222428002327   -0.744954007188   -0.522607775147
 H    0.461428002327    0.652045992812   -1.306607775147
 H   -0.432571997673   -0.627954007188    1.308392224853
 H   -1.248708997673    0.746396992812    0.517722224853
 H   -1.221567997673   -0.893396707188   -0.256817775147
