8
0 1 
 C   -0.551133863888    0.190477494472   -0.485688231068
 C    0.556866136112   -0.184522505528    0.480311768932
 H   -0.259133863888    1.054477494472   -1.083688231068
 H   -0.782133863888   -0.644522505528   -1.145688231068
 H   -1.438133863888    0.436477494472    0.097311768932
 H    0.222866136112   -1.074522505528    1.015311768932
 H    0.702726136112    0.612787494472    1.223964768932
 H    1.485556136112   -0.455602505528   -0.043195231068
