18
0 1 
 C   -1.388991485679    1.487288644734    0.069295987205
 C   -1.148991485679    2.337288644734    1.331295987205
 C   -0.435991485679    0.336288644734   -0.100704012795
 C    0.659008514321    0.473288644734   -0.936704012795
 C   -0.630991485679   -0.857711355266    0.565295987205
 C    1.559008514321   -0.577711355266   -1.107704012795
 C    0.283008514321   -1.900711355266    0.406295987205
 C    1.356008514321   -1.755711355266   -0.434704012795
 H   -2.402991485679    1.104288644734    0.068295987205
 H   -1.295991485679    2.128288644734   -0.808704012795
 H   -0.074991485679    2.418288644734    1.486295987205
 H    0.827008514321    1.404288644734   -1.460704012795
 H   -1.480991485679   -0.972711355266    1.221295987205
 H    2.405008514321   -0.476711355266   -1.770704012795
 H    0.135008514321   -2.832711355266    0.935295987205
 H    2.058008514321   -2.561711355266   -0.573704012795
 H   -1.613514485679    1.896218644734    2.225545987205
 H   -1.557885485679    3.342118644734    1.149325987205
