8
0 1 
 C   -0.164971511626   -0.191608355913    0.718030953220
 C    0.167028488374    0.194391644087   -0.718969046780
 H   -1.116971511626    0.251391644087    1.015030953220
 H   -0.238971511626   -1.277608355913    0.796030953220
 H    0.616028488374    0.148391644087    1.396030953220
 H    1.132028488374   -0.230608355913   -0.998969046780
 H    0.199500488374    1.289061644087   -0.822158046780
 H   -0.616106511626   -0.213768355913   -1.374796046780
