8
1 1 
 C   -0.656481225528   -0.156013503042   -0.413434828327
 N    0.579518774472    0.138986496958    0.371565171673
 H    0.612518774472   -0.390013503042    1.242565171673
 H    1.402518774472   -0.104013503042   -0.177434828327
 H    0.657518774472    1.135986496958    0.564565171673
 H   -0.711481225528   -1.224013503042   -0.647434828327
 H   -0.632481225528    0.383986496958   -1.363434828327
 H   -1.564021225528    0.124566496958    0.141215171673
