9
0 1 
 C   -0.344047000409    0.208175139424    0.431411069985
 C    1.114952999591    0.653175139424    0.182411069985
 O   -0.741047000409   -0.744824860576   -0.566588930015
 H   -0.439047000409   -0.227824860576    1.426411069985
 H   -1.002047000409    1.076175139424    0.365411069985
 H    1.160952999591    0.950175139424   -0.865588930015
 H   -0.324047000409   -1.584824860576   -0.324588930015
 H    1.793542999591   -0.200169860576    0.328418069985
 H    1.392552999591    1.551430139424    0.753440069985
