6
0 1 
 C    0.185876707669   -0.648366798865    0.279973535087
 O   -0.156123292331    0.597633201135   -0.317026464913
 H   -0.587123292331    1.115633201135    0.379973535087
 H    0.779876707669   -0.464366798865    1.175973535087
 H   -0.729756292331   -1.187351798865    0.564773535087
 H    0.801590707669   -1.228794798865   -0.422877464913
