19
0 1 
 C   -0.185954151300    1.645154602940   -1.905743885886
 C   -1.652954151300    1.961154602940   -2.212743885886
 C    0.025045848700    0.668154602940   -0.772743885886
 C   -0.085954151300   -0.703845397060   -0.987743885886
 C    0.340045848700    1.124154602940    0.506256114114
 C    0.112045848700   -1.605845397060    0.052256114114
 C    0.539045848700    0.230154602940    1.552256114114
 C    0.424045848700   -1.135845397060    1.323256114114
 O    0.618045848700   -2.013845397060    2.347256114114
 H    0.246045848700    1.210154602940   -2.802743885886
 H    0.347045848700    2.570154602940   -1.681743885886
 H   -2.167954151300    1.027154602940   -2.443743885886
 H   -0.339954151300   -1.071845397060   -1.970743885886
 H    0.431045848700    2.186154602940    0.691256114114
 H    0.025045848700   -2.667845397060   -0.126743885886
 H    0.782045848700    0.586154602940    2.542256114114
 H    0.496045848700   -2.928845397060    2.072256114114
 H   -1.711864151300    2.636408602940   -3.079093185886
 H   -2.145894151300    2.418115602940   -1.341999885886
