8
0 1 
 C   -0.121404126401    0.745782722777    0.074641881284
 C    0.123595873599   -0.745217277223   -0.074358118716
 H   -0.327404126401    1.200782722777   -0.894358118716
 H   -0.982404126401    0.919782722777    0.722641881284
 H    0.761595873599    1.205782722777    0.514641881284
 H   -0.736404126401   -1.172217277223   -0.586358118716
 H    1.027372873599   -0.938523277223   -0.670868118716
 H    0.231146873599   -1.222340277223    0.910921881284
