8
0 1 
 C    0.425888020651   -0.404977784855   -0.488248879227
 C   -0.429111979349    0.401022215145    0.487751120773
 H   -0.083111979349   -0.486977784855   -1.437248879227
 H    1.366888020651    0.118022215145   -0.650248879227
 H    0.627888020651   -1.394977784855   -0.089248879227
 H    0.164888020651    0.585022215145    1.383751120773
 H   -1.344744979349   -0.137962784855    0.772551120773
 H   -0.693419979349    1.363972215145    0.026371120773
