12
0 1 
 C   -0.223185772136   -0.269685997967    0.065683327682
 C    0.973814227864   -0.849685997967   -0.702316672318
 C    0.250814227864    0.341314002033    1.405683327682
 O   -0.886185772136    0.708314002033   -0.732316672318
 H   -0.923185772136   -1.075685997967    0.289683327682
 H    1.461814227864   -1.562685997967   -0.038316672318
 H   -0.615185772136    0.658314002033    1.986683327682
 H    0.802814227864   -0.405685997967    1.975683327682
 H    0.891814227864    1.205314002033    1.227683327682
 H   -1.807185772136    0.690314002033   -0.386316672318
 H    1.675218227864   -0.059285997967   -1.007766672318
 H    0.654301227864   -1.427851997967   -1.581882672318
