9
0 1 
 C   -0.130201688721    0.633631022495    1.300394816554
 C   -0.034201688721   -0.057368977505   -0.042605183446
 O   -0.799201688721   -0.974368977505   -0.325605183446
 N    0.908798311279    0.367631022495   -0.881605183446
 H   -0.931201688721    0.188631022495    1.892394816554
 H   -0.370201688721    1.682631022495    1.121394816554
 H    0.987798311279   -0.080368977505   -1.783605183446
 H    1.506798311279    1.141631022495   -0.637605183446
 H    0.821078311279    0.561971022495    1.848056816554
