6
0 1 
 C   -0.257177394300   -0.500424580428   -0.457440343303
 O    0.261822605700    0.504575419572    0.390559656697
 H    0.091822605700    0.229575419572    1.301559656697
 H    0.146822605700   -1.461424580428   -0.175440343303
 H    0.022822605700   -0.285424580428   -1.488440343303
 H   -1.354615394300   -0.532234580428   -0.389480343303
