8
0 1 
 C    0.273820429366    0.412577800383    0.581801433285
 C   -0.272179570634   -0.409422199617   -0.582198566715
 H   -0.193179570634    1.399577800383    0.595801433285
 H    0.044820429366   -0.098422199617    1.518801433285
 H    1.355820429366    0.514577800383    0.494801433285
 H    0.184820429366   -1.397422199617   -0.545198566715
 H   -0.047639570634    0.064917800383   -1.548935566715
 H   -1.364179570634   -0.520802199617   -0.510541566715
