12
0 1 
 C    0.190051182710    0.934032118276   -0.545378084002
 C    0.482051182710    0.287032118276   -1.894378084002
 C   -0.082948817290   -0.091967881724    0.535621915998
 O    0.751051182710   -0.344967881724    1.402621915998
 N   -1.264948817290   -0.688967881724    0.500621915998
 H    1.037051182710    1.548032118276   -0.237378084002
 H   -0.682948817290    1.578032118276   -0.638378084002
 H   -0.314948817290   -0.414967881724   -2.142378084002
 H    1.416051182710   -0.258967881724   -1.777378084002
 H   -1.475948817290   -1.386967881724    1.197621915998
 H   -1.926948817290   -0.470967881724   -0.229378084002
 H    0.588657182710    1.009502118276   -2.716975084002
