8
0 1 
 C    0.395925202065   -0.390428098142    0.536546271208
 C   -0.396074797935    0.388571901858   -0.533453728792
 H    1.273925202065   -0.855428098142    0.087546271208
 H    0.718925202065    0.287571901858    1.327546271208
 H   -0.238074797935   -1.165428098142    0.970546271208
 H   -1.262074797935    0.864571901858   -0.080453728792
 H   -0.736164797935   -0.265008098142   -1.350253728792
 H    0.245245202065    1.155821901858   -0.991753728792
