9
0 1 
 C   -1.340435694759    0.540269066113   -0.095881521860
 C    0.070564305241    0.019269066113    0.030118478140
 O    0.928564305241    0.655269066113    0.638118478140
 N    0.327564305241   -1.147730933887   -0.526881521860
 H    1.264564305241   -1.510730933887   -0.455881521860
 H   -0.347435694759   -1.592730933887   -1.148881521860
 H   -1.941435694759   -0.185730933887   -0.635881521860
 H   -1.350435694759    1.457269066113   -0.673881521860
 H   -1.793398694759    0.716979066113    0.890828478140
