8
0 1 
 C   -0.691849749600   -0.313014215898    0.043960818045
 C    0.695150250400    0.306985784102   -0.042039181955
 H   -0.699849749600   -1.146014215898    0.744960818045
 H   -1.396849749600    0.439985784102    0.394960818045
 H   -1.024849749600   -0.658014215898   -0.933039181955
 H    0.633150250400    1.168985784102   -0.707039181955
 H    1.426973250400   -0.394255415898   -0.469469181955
 H    1.022127250400    0.661091784102    0.946745318045
