15
0 1 
 C    1.765685974725   -0.496545416279    1.605612727814
 C   -0.063314025275    0.810454583721   -1.459387272186
 C    0.958685974725    0.515454583721   -0.551387272186
 C   -1.332314025275    0.390454583721   -1.196387272186
 C    0.681685974725   -0.216545416279    0.600612727814
 C   -1.616314025275   -0.329545416279   -0.056387272186
 C   -0.615314025275   -0.622545416279    0.847612727814
 H    0.147685974725    1.393454583721   -2.344387272186
 H    1.961685974725    0.870454583721   -0.741387272186
 H   -2.128314025275    0.641454583721   -1.884387272186
 H   -2.633314025275   -0.606545416279    0.169612727814
 H    2.719685974725   -0.567545416279    1.078612727814
 H    1.581685974725   -1.460545416279    2.073612727814
 H   -0.855314025275   -1.153545416279    1.757612727814
 H    1.839966974725    0.273401583721    2.387702727814
