8
0 1 
 C    0.149955558217    0.729609854731   -0.163211803248
 C   -0.144044441783   -0.728390145269    0.170788196752
 H    1.220955558217    0.912609854731   -0.201211803248
 H   -0.275044441783    0.963609854731   -1.139211803248
 H   -0.305044441783    1.382609854731    0.581788196752
 H    0.345955558217   -1.364390145269   -0.569211803248
 H   -1.219044441783   -0.870390145269    0.056788196752
 H    0.161839558217   -1.038572145269    1.180848196752
