11
0 1 
 C    0.317420342302    0.211028356706   -0.344893445796
 C    0.707420342302    0.228028356706    1.131106554204
 C   -1.008579657698   -0.416971643294   -0.799893445796
 H    0.352420342302    1.224028356706   -0.742893445796
 H    1.077420342302   -0.343971643294   -0.867893445796
 H    0.635420342302   -0.785971643294    1.523106554204
 H   -1.773579657698   -0.199971643294   -0.055893445796
 H    0.019970342302    0.867398356706    1.704356554204
 H    1.754310342302    0.547208356706    1.241346554204
 H   -1.382219657698   -0.064601643294   -1.772635445796
 H   -0.877359657698   -1.507081643294   -0.866604445796
