12
0 1 
 C   -0.097763627261   -0.059825998591   -0.374488028939
 C    0.473236372739   -1.380825998591    0.152511971061
 C   -1.349763627261    0.387174001409    0.373511971061
 O    0.885236372739    0.957174001409   -0.224488028939
 H   -0.330763627261   -0.167825998591   -1.429488028939
 H    0.657236372739   -1.282825998591    1.224511971061
 H   -1.610763627261    1.402174001409    0.068511971061
 H   -1.180763627261    0.370174001409    1.451511971061
 H   -2.186763627261   -0.261825998591    0.123511971061
 H    1.049236372739    1.089174001409    0.716511971061
 H    1.412676372739   -1.614355998591   -0.369908028939
 H   -0.258723627261   -2.182151998591   -0.026688028939
