15
0 1 
 C    0.733065494550   -1.353942315860   -0.956359794116
 C   -0.395934505450   -2.367942315860   -1.276359794116
 C    0.306065494550   -0.129942315860   -0.183359794116
 C    0.222065494550    1.173057684140   -0.583359794116
 C   -0.445934505450    1.062057684140    1.514640205884
 N   -0.103934505450   -0.157942315860    1.136640205884
 N   -0.250934505450    1.892057684140    0.488640205884
 H    1.512065494550   -1.845942315860   -0.370359794116
 H    1.163065494550   -1.005942315860   -1.895359794116
 H   -1.211934505450   -1.841942315860   -1.778359794116
 H    0.454065494550    1.641057684140   -1.531359794116
 H   -0.813934505450    1.271057684140    2.513640205884
 H   -0.422934505450    2.889057684140    0.488640205884
 H   -0.774535505450   -2.844752315860   -0.360219794116
 H    0.031956494550   -3.107092315860   -1.969589794116
