8
0 1 
 C   -0.037631376994    0.331706084860   -0.689240035717
 C    0.038368623006   -0.336293915140    0.686759964283
 H   -0.876631376994   -0.055293915140   -1.268240035717
 H   -0.184631376994    1.402706084860   -0.551240035717
 H    0.893368623006    0.176706084860   -1.234240035717
 H    0.648368623006    0.282706084860    1.344759964283
 H    0.480698623006   -1.341123915140    0.618489964283
 H   -0.969951376994   -0.411073915140    1.119999964283
