8
0 1 
 C    0.483986840171    0.434803938354    0.378731229624
 C   -0.486013159829   -0.431196061646   -0.385268770376
 H    0.171986840171    0.533803938354    1.418731229624
 H    1.471986840171   -0.020196061646    0.341731229624
 H    0.565986840171    1.424803938354   -0.062268770376
 H   -0.195013159829   -0.521196061646   -1.431268770376
 H   -1.510606159829   -0.042383061646   -0.290225770376
 H   -0.480214159829   -1.417791061646    0.101142229624
