12
0 1 
 C    0.172484623535    0.163989773163   -0.337337726551
 C   -1.128515376465   -0.541010226837   -0.760337726551
 C   -0.125515376465    1.237989773163    0.698662273449
 O    1.042484623535   -0.758010226837    0.293662273449
 H    0.667484623535    0.601989773163   -1.204337726551
 H   -1.613515376465   -0.923010226837    0.139662273449
 H   -0.717515376465    0.827989773163    1.517662273449
 H    0.808484623535    1.628989773163    1.099662273449
 H   -0.668515376465    2.060989773163    0.234662273449
 H    0.562484623535   -1.209010226837    0.997662273449
 H   -0.898155376465   -1.376530226837   -1.437717726551
 H   -1.807955376465    0.167349773163   -1.256907726551
