8
0 1 
 C   -0.002349654500    0.495870512832    0.601689510463
 C    0.009650345500   -0.493129487168   -0.601310489537
 H   -0.788349654500    1.237870512832    0.466689510463
 H   -0.201349654500   -0.043129487168    1.528689510463
 H    0.954650345500    1.012870512832    0.649689510463
 H   -1.015349654500   -0.839129487168   -0.739310489537
 H    0.348129495500   -0.017699487168   -1.533720489537
 H    0.615341045500   -1.383419487168   -0.376550489537
