11
0 1 
 C   -0.439908225397    0.261100896113   -0.160569443409
 C    0.515091774603    0.852100896113    0.893430556591
 C   -0.089908225397   -1.099899103887   -0.736569443409
 H   -1.422908225397    0.166100896113    0.304430556591
 H   -0.544908225397    0.967100896113   -0.986569443409
 H    1.497091774603    0.976100896113    0.441430556591
 H    0.255091774603   -1.770899103887    0.046430556591
 H   -0.991908225397   -1.532899103887   -1.169569443409
 H    0.585751774603    0.225250896113    1.794580556591
 H    0.127341774603    1.850720896113    1.143260556591
 H    0.669771774603   -1.039869103887   -1.529839443409
