8
0 1 
 C    0.478678146517   -0.530081807183    0.261234259867
 C   -0.471321853483    0.528918192817   -0.265765740133
 H    1.384678146517   -0.563081807183   -0.342765740133
 H    0.742678146517   -0.322081807183    1.298234259867
 H   -0.071321853483   -1.465081807183    0.233234259867
 H   -1.436321853483    0.380918192817    0.217234259867
 H   -0.600699853483    0.452010192817   -1.355415740133
 H   -0.106602853483    1.531171992817    0.003434259867
