13
1 1 
 C   -1.868443329998   -0.300153748008   -0.600941655470
 C    0.456556670002    0.083846251992    0.146058344530
 N   -0.679443329998    0.525846251992   -0.370941655470
 N    0.579556670002   -1.181153748008    0.502058344530
 N    1.470556670002    0.908846251992    0.317058344530
 H   -0.717443329998    1.495846251992   -0.649941655470
 H   -0.170443329998   -1.827153748008    0.324058344530
 H    1.445556670002   -1.523153748008    0.887058344530
 H    1.399556670002    1.870846251992    0.023058344530
 H    2.353556670002    0.563846251992    0.657058344530
 H   -1.871443329998   -1.220153748008   -0.014941655470
 H   -1.889443329998   -0.576153748008   -1.657941655470
 H   -2.783373329998    0.268856251992   -0.379291655470
