8
0 1 
 C    0.711022701968    0.190063074652   -0.203257322108
 C   -0.711977298032   -0.192936925348    0.192742677892
 H    0.689022701968    0.876063074652   -1.043257322108
 H    1.181022701968    0.704063074652    0.634742677892
 H    1.314022701968   -0.682936925348   -0.438257322108
 H   -1.286977298032    0.708063074652    0.405742677892
 H   -0.658977298032   -0.759936925348    1.123742677892
 H   -1.226747298032   -0.811096925348   -0.557517322108
