9
0 1 
 C   -0.030722206658   -0.647043093741   -1.301222506482
 C   -0.017722206658    0.069956906259    0.026777493518
 O   -0.555722206658    1.170956906259    0.159777493518
 N    0.569277793342   -0.546043093741    1.049777493518
 H   -0.718722206658   -1.481043093741   -1.183222506482
 H    0.960277793342   -1.060043093741   -1.492222506482
 H    0.523277793342   -0.140043093741    1.980777493518
 H    1.043277793342   -1.431043093741    0.899777493518
 H   -0.321322206658   -0.013583093741   -2.152272506482
