9
0 1 
 C   -0.192036038699    0.446453492692    0.267689638826
 C    0.941963961301    0.506453492692   -0.768310361174
 O   -0.670036038699   -0.865546507308    0.513689638826
 H    0.163963961301    0.866453492692    1.209689638826
 H   -1.020036038699    1.065453492692   -0.082310361174
 H    1.306963961301    1.535453492692   -0.780310361174
 H   -1.111036038699   -1.182546507308   -0.297310361174
 H    0.586214861301    0.246223492692   -1.776140361174
 H    1.778624161301   -0.140286507308   -0.465440361174
