19
0 1 
 C   -1.366341172873   -2.482602066954    0.857554316490
 C    0.548658827127    0.329397933046   -0.683445683510
 C   -0.290341172873   -0.179602066954    0.339554316490
 C   -0.541341172873   -1.544602066954    0.052554316490
 C    0.128658827127   -1.806602066954   -1.107445683510
 C    1.022658827127    1.623397933046   -0.749445683510
 C    0.639658827127    2.476397933046    0.270554316490
 C   -0.674341172873    0.694397933046    1.355554316490
 C   -0.188341172873    1.989397933046    1.288554316490
 N    0.777658827127   -0.712602066954   -1.557445683510
 H    1.354658827127   -0.684602066954   -2.391445683510
 H    1.679658827127    1.947397933046   -1.545445683510
 H    0.107658827127   -2.753602066954   -1.613445683510
 H    1.029658827127    3.471397933046    0.334554316490
 H   -1.291341172873    0.359397933046    2.175554316490
 H   -1.289341172873   -2.193602066954    1.907554316490
 H   -0.928341172873   -3.477602066954    0.762554316490
 H   -0.451341172873    2.669397933046    2.089554316490
 H   -2.430671172873   -2.529568066954    0.583704316490
