11
0 1 
 C   -0.252329359764    0.516520039200   -0.171921128808
 C   -0.955329359764   -0.801479960800   -0.110921128808
 C    1.184670640236    0.329520039200    0.273078871192
 H   -0.274329359764    0.890520039200   -1.194921128808
 H   -0.755329359764    1.222520039200    0.487078871192
 H   -0.841329359764   -1.242479960800    0.879078871192
 H   -0.433329359764   -1.457479960800   -0.812921128808
 H    1.186670640236   -0.115479960800    1.269078871192
 H    1.692670640236   -0.351479960800   -0.414921128808
 H   -2.018919359764   -0.768269960800   -0.389631128808
 H    1.717610640236    1.291580039200    0.293408871192
