8
0 1 
 C    0.116448893980   -0.755297301913   -0.047702206454
 C   -0.114551106020    0.756702698087    0.044297793546
 H    1.048448893980   -1.023297301913    0.449297793546
 H   -0.686551106020   -1.288297301913    0.453297793546
 H    0.161448893980   -1.069297301913   -1.090702206454
 H   -0.060551106020    1.058702698087    1.086297793546
 H    0.637638893980    1.321382698087   -0.526103206454
 H   -1.123031106020    0.984072698087   -0.331552206454
