8
0 1 
 C   -0.571081293527    0.331247928568    0.380576218178
 C    0.572918706473   -0.332752071432   -0.378423781822
 H   -0.174081293527    1.061247928568    1.084576218178
 H   -1.221081293527    0.856247928568   -0.320423781822
 H   -1.160081293527   -0.416752071432    0.914576218178
 H    1.185918706473    0.443247928568   -0.828423781822
 H    1.178518706473   -0.951990071432    0.299656218178
 H    0.168928706473   -0.974092071432   -1.175589781822
