8
0 1 
 C    0.471344121280    0.522616741331   -0.293628480917
 C   -0.467655878720   -0.525383258669    0.296371519083
 H    0.382344121280    0.527616741331   -1.379628480917
 H    0.203344121280    1.513616741331    0.069371519083
 H    1.503344121280    0.296616741331   -0.030628480917
 H   -1.441655878720   -0.402383258669   -0.172628480917
 H   -0.092995878720   -1.541703258669    0.104731519083
 H   -0.598295878720   -0.360823258669    1.376121519083
