15
0 1 
 C    1.908482186593    1.537469445740    0.074919477320
 C   -1.610517813407    0.121469445740    0.444919477320
 C   -1.450517813407   -1.162530554260   -0.075080522680
 C   -0.518517813407    0.994469445740    0.503919477320
 C    0.736482186593    0.591469445740    0.042919477320
 C   -0.197517813407   -1.573530554260   -0.535080522680
 C    0.888482186593   -0.698530554260   -0.472080522680
 H   -2.579517813407    0.429469445740    0.805919477320
 H   -2.294517813407   -1.838530554260   -0.121080522680
 H   -0.644517813407    1.978469445740    0.927919477320
 H   -0.064517813407   -2.566530554260   -0.935080522680
 H    2.787482186593    0.958469445740    0.354919477320
 H    1.752482186593    2.283469445740    0.849919477320
 H    1.851482186593   -1.033530554260   -0.815080522680
 H    2.092422186593    2.047604545740   -0.882122522680
