19
0 1 
 C   -0.348452514122    2.234569051645    1.126698470749
 C    0.887547485878    2.657569051645    1.930698470749
 C   -0.238452514122    0.901569051645    0.420698470749
 C    0.658547485878    0.734569051645   -0.633301529251
 C   -1.032452514122   -0.183430948355    0.808698470749
 C    0.772547485878   -0.489430948355   -1.286301529251
 C   -0.933452514122   -1.412430948355    0.152698470749
 C   -0.032452514122   -1.561430948355   -0.900301529251
 O    0.076547485878   -2.756430948355   -1.550301529251
 H   -1.214452514122    2.199569051645    1.779698470749
 H   -0.555452514122    3.005569051645    0.382698470749
 H    1.604547485878    3.126569051645    1.255698470749
 H    1.281547485878    1.564569051645   -0.943301529251
 H   -1.740452514122   -0.069430948355    1.618698470749
 H    1.476547485878   -0.603430948355   -2.098301529251
 H   -1.549452514122   -2.247430948355    0.453698470749
 H    0.731547485878   -2.721430948355   -2.258301529251
 H    1.344364485878    1.793769051645    2.435840070749
 H    0.580991485878    3.388087051645    2.693828390749
