8
0 1 
 C   -0.680453566830    0.124433145696   -0.323805425680
 C    0.682546433170   -0.125566854304    0.318194574320
 H   -0.999453566830   -0.753566854304   -0.887805425680
 H   -1.402453566830    0.338433145696    0.463194574320
 H   -0.652453566830    0.994433145696   -0.978805425680
 H    0.970546433170    0.771433145696    0.864194574320
 H    1.455079433170   -0.376407854304   -0.423605425680
 H    0.603815433170   -0.960825854304    1.029634574320
