16
0 1 
 C    0.078117529920    1.785561228958   -2.335447652494
 C    0.262117529920    1.355561228958    0.141552347506
 C   -0.012882470080    0.867561228958   -1.138447652494
 C    0.262117529920    0.507561228958    1.251552347506
 C   -0.016882470080   -0.848438771042    1.085552347506
 C   -0.294882470080   -0.492438771042   -1.294447652494
 C   -0.297882470080   -1.352438771042   -0.188447652494
 O   -0.010882470080   -1.674438771042    2.173552347506
 H    0.494117529920    2.400561228958    0.263552347506
 H    0.482117529920    0.901561228958    2.234552347506
 H   -0.594882470080    2.629561228958   -2.171447652494
 H   -0.250882470080    1.266561228958   -3.235447652494
 H   -0.499882470080   -0.890438771042   -2.281447652494
 H    0.193117529920   -1.198438771042    2.987552347506
 H   -0.511882470080   -2.405438771042   -0.312447652494
 H    1.101137529920    2.165331228958   -2.474007652494
