15
0 1 
 C   -2.417130117198    0.059491116698    0.540856564930
 C   -0.003130117198    0.630491116698    1.035856564930
 C   -0.937130117198    0.041491116698    0.191856564930
 C    1.380869882802    0.575491116698    0.758856564930
 C    1.835869882802   -0.070508883302   -0.382143435070
 C   -0.473130117198   -0.599508883302   -0.962143435070
 C    0.916869882802   -0.648508883302   -1.251143435070
 H   -0.362130117198    1.135491116698    1.917856564930
 H    2.098869882802    1.034491116698    1.428856564930
 H   -2.970130117198   -0.093508883302   -0.388143435070
 H   -2.645130117198    1.054491116698    0.923856564930
 H    2.895869882802   -0.120508883302   -0.592143435070
 H   -1.187130117198   -1.059508883302   -1.634143435070
 H    1.278869882802   -1.137508883302   -2.148143435070
 H   -2.717920117198   -0.675768883302    1.301716564930
