19
0 1 
 C   -0.946286924215    0.884186329914    2.171915857095
 C   -2.457286924215    1.162186329914    2.087915857095
 C   -0.303286924215    0.363186329914    0.908915857095
 C   -0.273286924215   -1.009813670086    0.644915857095
 C    0.296713075785    1.234186329914   -0.008084142905
 C    0.345713075785   -1.505813670086   -0.504084142905
 C    0.925713075785    0.739186329914   -1.165084142905
 C    0.943713075785   -0.633813670086   -1.414084142905
 O    1.535713075785   -1.121813670086   -2.553084142905
 H   -0.449286924215    1.804186329914    2.463915857095
 H   -0.770286924215    0.161186329914    2.967915857095
 H   -2.722286924215    1.621186329914    3.036915857095
 H   -0.734286924215   -1.699813670086    1.339915857095
 H    0.293713075785    2.297186329914    0.179915857095
 H    0.352713075785   -2.568813670086   -0.695084142905
 H    1.394713075785    1.416186329914   -1.864084142905
 H    1.483713075785   -2.082813670086   -2.609084142905
 H   -3.044046924215    0.241851329914    1.951175857095
 H   -2.694796924215    1.926693329914    1.333515857095
