8
0 1 
 C   -0.551778534878    0.023082831634    0.529230979465
 C    0.556221465122   -0.019917168366   -0.526769020535
 H   -0.424778534878    0.894082831634    1.173230979465
 H   -1.523778534878    0.082082831634    0.039230979465
 H   -0.534778534878   -0.881917168366    1.133230979465
 H    0.448221465122   -0.942917168366   -1.095769020535
 H    1.548971465122   -0.009267168366   -0.053169020535
 H    0.433241465122    0.820242831634   -1.226069020535
