8
0 1 
 C   -0.092360589307    0.724243651536   -0.224303977642
 C    0.094639410693   -0.728756348464    0.219696022358
 H   -1.093360589307    0.871243651536   -0.634303977642
 H    0.021639410693    1.376243651536    0.642696022358
 H    0.658639410693    1.023243651536   -0.955303977642
 H   -0.604360589307   -0.936756348464    1.025696022358
 H   -0.129490589307   -1.408226348464   -0.615813977642
 H    1.119799410693   -0.872016348464    0.591896022358
