9
0 1 
 C    0.794318961933    0.838637575943   -0.939639378524
 C    0.347318961933   -0.981362424057    1.059360621476
 S   -0.581681038067    0.068637575943   -0.062639378524
 H    1.532318961933    1.157637575943   -0.202639378524
 H    0.423318961933    1.741637575943   -1.423639378524
 H    1.039318961933   -0.375362424057    1.645360621476
 H   -0.342681038067   -1.486362424057    1.735360621476
 H    0.904318961933   -1.730362424057    0.496360621476
 H    1.303268961933    0.214765575943   -1.689142378524
