10
-1 1 
 C   -1.039616049032   -0.321915815574    0.047808910153
 C   -1.643616049032    0.881084184426   -0.680191089847
 C    0.483383950968   -0.215915815574    0.183808910153
 O    1.097383950968    0.679084184426   -0.441191089847
 O    1.068383950968   -1.052915815574    0.903808910153
 H   -1.495616049032   -0.422915815574    1.034808910153
 H   -1.275616049032   -1.224915815574   -0.515191089847
 H   -2.726616049032    0.753084184426   -0.698191089847
 H   -1.246687049032    0.937573184426   -1.704521089847
 H   -1.434558049032    1.803104184426   -0.117901089847
