8
0 1 
 C   -0.140237788425   -0.020559682132    0.747411913816
 C    0.137762211575    0.018440317868   -0.748588086184
 H    0.697762211575   -0.467559682132    1.279411913816
 H   -0.276237788425    0.988440317868    1.121411913816
 H   -1.044237788425   -0.596559682132    0.932411913816
 H    1.069762211575    0.559440317868   -0.908588086184
 H    0.252538211575   -1.005219682132   -1.134523086184
 H   -0.670110788425    0.546693317868   -1.276120086184
