8
0 1 
 C   -0.077145117588   -0.753448787609    0.098398250862
 C    0.079854882412    0.752551212391   -0.101601749138
 H    0.821854882412   -1.166448787609    0.551398250862
 H   -0.911145117588   -0.942448787609    0.775398250862
 H   -0.272145117588   -1.246448787609   -0.854601749138
 H    0.384854882412    1.203551212391    0.842398250862
 H    0.829817882412    0.976461212391   -0.874530749138
 H   -0.885502117588    1.186021212391   -0.401918749138
