8
0 1 
 C    0.535852523002   -0.105278518575    0.527755726539
 C   -0.535147476998    0.106721481425   -0.532244273461
 H    0.913852523002    0.847721481425    0.892755726539
 H    0.104852523002   -0.639278518575    1.374755726539
 H    1.359852523002   -0.694278518575    0.122755726539
 H   -1.300147476998    0.749721481425   -0.108244273461
 H   -0.090447476998    0.572941481425   -1.423804273461
 H   -0.996357476998   -0.854008518575   -0.804774273461
