7
-1 1 
 C   -1.137438748585    0.447669023620   -0.762904034013
 C    0.067561251415   -0.028330976380    0.039095965987
 O    0.393561251415   -1.235330976380   -0.010904034013
 O    0.681561251415    0.810669023620    0.734095965987
 H   -0.996438748585    1.494669023620   -1.040904034013
 H   -2.032438748585    0.391669023620   -0.138904034013
 H   -1.295248748585   -0.139630976380   -1.679514034013
