8
0 1 
 C   -0.373676853759    0.371894253656   -0.545026301484
 C    0.375323146241   -0.376105746344    0.549973698516
 H   -1.390676853759    0.598894253656   -0.227026301484
 H    0.145323146241    1.301894253656   -0.774026301484
 H   -0.411676853759   -0.232105746344   -1.446026301484
 H    1.402323146241   -0.551105746344    0.226973698516
 H   -0.135881853759   -1.335255746344    0.719403698516
 H    0.370987146241    0.267824253656    1.441793698516
