8
0 1 
 C   -0.522733327382   -0.541399849370    0.128422028034
 C    0.520266672618    0.546600150630   -0.120577971966
 H   -1.310733327382   -0.192399849370    0.795422028034
 H   -0.961733327382   -0.840399849370   -0.821577971966
 H   -0.044733327382   -1.432399849370    0.524422028034
 H    1.337266672618    0.091600150630   -0.681577971966
 H    0.914766672618    0.955390150630    0.821362028034
 H    0.094536672618    1.356290150630   -0.731447971966
