9
0 1 
 C   -0.229010520046    0.326181260944    0.404629211603
 C    1.010989479954    0.677181260944   -0.438370788397
 O   -0.702010520046   -0.936818739056    0.088629211603
 H    0.053989479954    0.336181260944    1.456629211603
 H   -1.008010520046    1.072181260944    0.255629211603
 H    1.455989479954    1.594181260944   -0.087370788397
 H   -1.164010520046   -0.836818739056   -0.775370788397
 H    0.727629479954    0.876441260944   -1.482400788397
 H    1.764939479954   -0.121038739056   -0.371970788397
