16
1 1 
 C    0.114836972637   -1.598221119610   -0.317603197983
 C    0.219836972637   -1.509221119610   -1.835603197983
 C   -0.072163027363    0.740778880390    0.523396802017
 N   -0.569163027363   -0.468221119610    0.288396802017
 N    1.161836972637    1.092778880390    0.227396802017
 N   -0.875163027363    1.616778880390    1.100396802017
 H   -0.428163027363   -2.510221119610   -0.062603197983
 H    1.115836972637   -1.684221119610    0.109396802017
 H    0.696836972637   -0.572221119610   -2.123603197983
 H   -0.777163027363   -1.542221119610   -2.268603197983
 H   -1.529163027363   -0.607221119610    0.605396802017
 H    1.780836972637    0.429778880390   -0.206603197983
 H    1.485836972637    2.027778880390    0.421396802017
 H   -1.808163027363    1.291778880390    1.348396802017
 H   -0.575163027363    2.554778880390    1.309396802017
 H    0.837796972637   -2.350471119610   -2.182623197983
