9
0 1 
 C   -0.202289467232    0.286497380449   -1.396352743445
 C    0.023710532768   -0.060502619551    0.048647256555
 O    0.368710532768   -1.191502619551    0.367647256555
 N   -0.176289467232    0.904497380449    0.931647256555
 H   -0.062289467232    0.718497380449    1.922647256555
 H   -0.380289467232    1.843497380449    0.608647256555
 H   -0.959289467232    1.061497380449   -1.462352743445
 H   -0.591289467232   -0.595502619551   -1.904352743445
 H    0.717190532768    0.623737380449   -1.897152743445
