14
0 1 
 C    0.197911873078    0.213256234594    0.223248709389
 C    1.046911873078   -1.039743765406   -0.022751290611
 C   -0.070088126922    0.980256234594   -1.068751290611
 C   -1.143088126922   -0.128743765406    0.895248709389
 H    0.759911873078    0.858256234594    0.896248709389
 H    0.480911873078   -1.717743765406   -0.657751290611
 H   -0.546088126922    0.328256234594   -1.803751290611
 H   -0.731088126922    1.825256234594   -0.868751290611
 H    0.855911873078    1.379256234594   -1.483751290611
 H   -1.886088126922   -0.340743765406    0.127248709389
 H   -1.057088126922   -1.017743765406    1.517248709389
 H    1.289761873078   -1.524673765406    0.934258709389
 H    1.984791873078   -0.760913765406   -0.525371290611
 H   -1.527758126922    0.672826234594    1.542948709389
