8
0 1 
 C   -0.506181034976   -0.332253251137   -0.477499067515
 C    0.509818965024    0.329746748863    0.470500932485
 H   -0.319181034976   -1.400253251137   -0.571499067515
 H   -1.505181034976   -0.212253251137   -0.055499067515
 H   -0.483181034976    0.135746748863   -1.462499067515
 H    0.362818965024   -0.081253251137    1.468500932485
 H    1.558138965024    0.172285748863    0.176860932485
 H    0.343268965024    1.415571748863    0.527460932485
