19
0 1 
 C   -1.209238140215    2.574499233569   -0.826090398288
 C    0.824761859785   -0.482500766431   -0.085090398288
 C   -0.398238140215    0.236499233569    0.008909601712
 C   -0.238238140215    1.454499233569   -0.737090398288
 C    1.022761859785    1.428499233569   -1.245090398288
 C   -0.035238140215   -2.243500766431    1.261909601712
 C    1.018761859785   -1.713500766431    0.533909601712
 C   -1.256238140215   -1.560500766431    1.372909601712
 C   -1.449238140215   -0.320500766431    0.753909601712
 N    1.664761859785    0.276499233569   -0.857090398288
 H    0.077761859785   -3.207500766431    1.735909601712
 H    1.952761859785   -2.246500766431    0.431909601712
 H   -2.064238140215   -2.036500766431    1.905909601712
 H   -2.395238140215    0.195499233569    0.830909601712
 H    2.613761859785    0.037499233569   -1.110090398288
 H    1.462761859785    2.225499233569   -1.833090398288
 H   -0.617238140215    3.483499233569   -0.827090398288
 H   -1.786238140215    2.567499233569    0.099909601712
 H   -1.893428140215    2.598939233569   -1.687070398288
