9
0 1 
 C    0.903735038149   -0.806832652308    0.852710150357
 C   -1.362264961851    0.564167347692    0.170710150357
 S    0.232735038149    0.123167347692   -0.521289849643
 H    0.238735038149   -1.628832652308    1.103710150357
 H    1.878735038149   -1.208832652308    0.576710150357
 H    1.009735038149   -0.154832652308    1.719710150357
 H   -1.210264961851    1.013167347692    1.152710150357
 H   -1.974264961851   -0.330832652308    0.280710150357
 H   -1.866284961851    1.292197347692   -0.481929849643
