11
0 1 
 C   -0.243432258274   -0.347916638248   -0.328581303795
 C   -0.945432258274    0.912083361752    0.193418696205
 C    1.178567741726   -0.581916638248    0.122418696205
 H   -0.849432258274   -1.212916638248   -0.052581303795
 H   -0.212432258274   -0.269916638248   -1.415581303795
 H   -0.288432258274    1.778083361752    0.115418696205
 H   -1.220432258274    0.763083361752    1.238418696205
 H    1.786567741726    0.299083361752   -0.108581303795
 H    1.193567741726   -0.739916638248    1.206418696205
 H   -1.842782258274    1.062971361752   -0.424641303795
 H    1.555977741726   -1.469126338248   -0.407131303795
