8
0 1 
 C   -0.470450733026    0.290682589385    0.528374307852
 C    0.469549266974   -0.292317410615   -0.530625692148
 H   -1.504450733026    0.211682589385    0.196374307852
 H   -0.352450733026   -0.245317410615    1.472374307852
 H   -0.244450733026    1.341682589385    0.693374307852
 H    1.493549266974   -0.144317410615   -0.182625692148
 H    0.329005266974    0.225282589385   -1.491011692148
 H    0.289531266974   -1.369547410615   -0.661678692148
