8
0 1 
 C    0.133570740328    0.465702059859    0.583111693777
 C   -0.127429259672   -0.470297940141   -0.582888306223
 H    1.157570740328    0.824702059859    0.576111693777
 H   -0.534429259672    1.323702059859    0.523111693777
 H   -0.053429259672   -0.052297940141    1.524111693777
 H    0.038570740328    0.069702059859   -1.515888306223
 H   -1.182429259672   -0.738297940141   -0.550888306223
 H    0.501020740328   -1.372787940141   -0.559218306223
