8
0 1 
 C   -0.378513891064   -0.076229235324   -0.652975072789
 C    0.383486108936    0.080770764676    0.654024927211
 H    0.166486108936   -0.732229235324   -1.332975072789
 H   -1.357513891064   -0.510229235324   -0.447975072789
 H   -0.538513891064    0.880770764676   -1.139975072789
 H   -0.197513891064    0.686770764676    1.348024927211
 H    1.364556108936    0.545789764676    0.477214927211
 H    0.503296108936   -0.924948035324    1.083184927211
