15
0 1 
 C    2.246869318337    0.685359555252   -0.618358156195
 C   -1.691130681663   -0.523640444748    0.477641843805
 C   -1.004130681663   -1.235640444748   -0.507358156195
 C   -1.119130681663    0.581359555252    1.105641843805
 C    0.261869318337   -0.830640444748   -0.867358156195
 C    0.166869318337    0.971359555252    0.741641843805
 C    0.854869318337    0.264359555252   -0.251358156195
 H   -2.684130681663   -0.841640444748    0.767641843805
 H   -1.455130681663   -2.096640444748   -0.978358156195
 H   -1.662130681663    1.120359555252    1.868641843805
 H    0.788869318337   -1.361640444748   -1.644358156195
 H    0.629869318337    1.821359555252    1.224641843805
 H    2.382869318337    1.733359555252   -0.378358156195
 H    2.342869318337    0.571359555252   -1.686358156195
 H    3.037439318337    0.095129555252   -0.131908156195
