7
-1 1 
 C   -0.700107033161    0.774586408706    0.995839334563
 C    0.036892966839   -0.040413591294   -0.052160665437
 O    1.165892966839    0.335586408706   -0.420160665437
 O   -0.498107033161   -1.068413591294   -0.526160665437
 H   -1.011107033161    0.118586408706    1.813839334563
 H   -1.605107033161    1.187586408706    0.549839334563
 H   -0.085257033161    1.582656408706    1.418907334563
