8
0 1 
 C    0.616288122987   -0.041329682057   -0.418796753754
 C   -0.615711877013    0.034670317943    0.422203246246
 H    0.698288122987   -1.018329682057   -0.895796753754
 H    0.572288122987    0.726670317943   -1.189796753754
 H    1.494288122987    0.132670317943    0.205203246246
 H   -1.496711877013   -0.059329682057   -0.215796753754
 H   -0.627711877013    1.034670317943    0.850203246246
 H   -0.647301877013   -0.737059682057    1.205423246246
