11
0 1 
 C    0.524443315478   -0.131856566734   -0.162970362039
 C    0.090443315478   -0.078856566734    1.308029637961
 C   -0.584556684522    0.205143433266   -1.147970362039
 H    1.349443315478    0.548143433266   -0.340970362039
 H    0.887443315478   -1.120856566734   -0.412970362039
 H   -0.767556684522   -0.737856566734    1.442029637961
 H   -0.818556684522    1.267143433266   -1.103970362039
 H   -0.246556684522   -0.025856566734   -2.158970362039
 H   -1.475556684522   -0.385856566734   -0.929970362039
 H    0.918573315478   -0.419386566734    1.946971437961
 H   -0.208366684522    0.940843433266    1.592512537961
