8
0 1 
 C   -0.641730234866    0.356653967780   -0.208301260766
 C    0.646269765134   -0.354346032220    0.203698739234
 H   -0.904730234866    0.060653967780   -1.222301260766
 H   -1.454730234866    0.063653967780    0.449698739234
 H   -0.523730234866    1.437653967780   -0.136301260766
 H    0.988269765134    0.079653967780    1.142698739234
 H    1.439519765134   -0.255810032220   -0.551978260766
 H    0.401349765134   -1.413286032220    0.372984739234
