13
1 1 
 C   -0.361065821588    1.646249644000    1.059294847117
 C    0.090934178412   -0.412750356000   -0.254705152883
 N   -0.525065821588    0.226249644000    0.724294847117
 N    0.959934178412    0.225249644000   -1.011705152883
 N   -0.194065821588   -1.677750356000   -0.472705152883
 H   -1.152065821588   -0.303750356000    1.318294847117
 H    1.146934178412    1.203249644000   -0.847705152883
 H    1.432934178412   -0.262750356000   -1.757705152883
 H   -0.893065821588   -2.150750356000    0.088294847117
 H    0.271934178412   -2.182750356000   -1.224705152883
 H   -0.754065821588    2.248249644000    0.238294847117
 H    0.698934178412    1.856249644000    1.184294847117
 H   -0.880922821588    1.943149644000    1.982134847117
