8
0 1 
 C    0.372116724093   -0.653568621456   -0.144338680847
 C   -0.377883275907    0.648431378544    0.147661319153
 H   -0.180883275907   -1.275568621456   -0.845338680847
 H    1.339116724093   -0.415568621456   -0.583338680847
 H    0.554116724093   -1.195568621456    0.779661319153
 H   -0.505883275907    1.182431378544   -0.793338680847
 H   -1.366875275907    0.477151378544    0.597721319153
 H    0.229069724093    1.288291378544    0.805071319153
