9
0 1 
 C   -0.212633218448   -0.160035366979    1.432332892518
 C   -0.044633218448    0.008964633021   -0.068667107482
 O   -1.016633218448    0.166964633021   -0.804667107482
 N    1.194366781552   -0.018035366979   -0.535667107482
 H   -0.354633218448    0.822964633021    1.882332892518
 H    0.705366781552   -0.583035366979    1.830332892518
 H    1.341366781552    0.044964633021   -1.530667107482
 H    1.966366781552   -0.066035366979    0.107332892518
 H   -1.055483218448   -0.819345366979    1.687130892518
