15
0 1 
 C   -0.652883147801    1.099198220293   -2.092593257550
 C   -0.284883147801   -1.514801779707    0.661406742450
 C    0.500116852199   -0.827801779707    1.587406742450
 C   -0.660883147801   -0.893801779707   -0.529593257550
 C   -0.257883147801    0.418198220293   -0.809593257550
 C    0.907116852199    0.478198220293    1.318406742450
 C    0.527116852199    1.096198220293    0.124406742450
 H   -0.587883147801   -2.532801779707    0.858406742450
 H    0.791116852199   -1.308801779707    2.511406742450
 H   -1.239883147801   -1.479801779707   -1.223593257550
 H    1.514116852199    1.014198220293    2.036406742450
 H    0.227116852199    1.285198220293   -2.702593257550
 H   -1.066883147801    2.072198220293   -1.818593257550
 H    0.846116852199    2.111198220293   -0.074593257550
 H   -1.410383147801    0.560488220293   -2.680803257550
