11
0 1 
 C   -0.125195282746   -0.541152956641   -0.072150596300
 C   -1.099195282746    0.434847043359    0.594849403700
 C    1.218804717254    0.068847043359   -0.518150596300
 H    0.069804717254   -1.362152956641    0.616849403700
 H   -0.612195282746   -0.942152956641   -0.962150596300
 H   -0.708195282746    0.707847043359    1.571849403700
 H    1.012804717254    0.919847043359   -1.165150596300
 H   -2.094077282746   -0.023982956641    0.693279403700
 H   -1.213851282746    1.335397043359   -0.026320596300
 H    1.797370717254    0.442327043359    0.339619403700
 H    1.814848717254   -0.631112956641   -1.122130596300
