8
1 1 
 C    0.615854297159   -0.073275143021    0.480346015310
 N   -0.548145702841    0.060724856979   -0.420653984690
 H   -0.262145702841   -0.055275143021   -1.396653984690
 H   -0.951145702841    0.986724856979   -0.370653984690
 H   -1.270145702841   -0.615275143021   -0.207653984690
 H    1.472854297159    0.432724856979    0.023346015310
 H    0.886854297159   -1.123275143021    0.627346015310
 H    0.406985297159    0.403117856979    1.449586015310
