9
0 1 
 C    0.013365870769   -0.577670709289    0.043173284940
 C   -0.426634129231    0.187329290711   -1.204826715060
 O    0.432365870769    0.326329290711    1.048173284940
 H   -0.807634129231   -1.192670709289    0.413173284940
 H    0.850365870769   -1.227670709289   -0.196826715060
 H   -1.289634129231    0.797329290711   -0.945826715060
 H   -0.348634129231    0.723329290711    1.471173284940
 H   -0.718825129231   -0.499470709289   -2.012868715060
 H    0.373115870769    0.867799290711   -1.532486715060
