15
0 1 
 C   -1.150307013889    0.943166617337   -1.984973941672
 C    0.185692986111   -0.866833382663   -0.829973941672
 C   -0.468307013889    0.368166617337   -0.746973941672
 C    0.846692986111   -1.418833382663    0.290026058328
 C   -0.422307013889    1.056166617337    0.464026058328
 C    0.893692986111   -0.708833382663    1.487026058328
 C    0.246692986111    0.512166617337    1.580026058328
 H    0.181692986111   -1.411833382663   -1.763973941672
 H    1.342692986111   -2.377833382663    0.211026058328
 H   -1.645307013889    0.125166617337   -2.509973941672
 H   -0.368307013889    1.328166617337   -2.641973941672
 H   -0.895307013889    2.020166617337    0.573026058328
 H    1.414692986111   -1.114833382663    2.343026058328
 H    0.281692986111    1.052166617337    2.514026058328
 H   -1.881777013889    1.746138617337   -1.811222941672
