8
0 1 
 C   -0.637518186270    0.308805915441   -0.278419868003
 C    0.630481813730   -0.317194084559    0.284580131997
 H   -0.645518186270    1.369805915441   -0.035419868003
 H   -0.651518186270    0.203805915441   -1.363419868003
 H   -1.523518186270   -0.163194084559    0.135580131997
 H    1.458481813730    0.258805915441   -0.126419868003
 H    0.682071813730   -0.216874084559    1.378780131997
 H    0.763781813730   -1.352473084559   -0.062449868003
