7
-1 1 
 C   -0.908636153030   -0.679233099367   -0.870112112917
 C    0.067363846970    0.038766900633    0.047887887083
 O    0.735363846970    0.976766900633   -0.419112112917
 O    0.112363846970   -0.330233099367    1.242887887083
 H   -1.612636153030   -1.258233099367   -0.268112112917
 H   -0.350636153030   -1.380233099367   -1.494112112917
 H   -1.473896153030    0.003426900633   -1.521612112917
