16
1 1 
 C   -1.366790008610    0.508435495463   -0.328648961773
 C   -1.624790008610    1.800435495463   -1.091648961773
 C    0.725209991390   -0.565564504537    0.354351038227
 N    0.022209991390    0.063435495463   -0.551648961773
 N    0.159209991390   -1.019564504537    1.478351038227
 N    2.002209991390   -0.759564504537    0.091351038227
 H   -1.558790008610    0.698435495463    0.729351038227
 H   -2.058790008610   -0.252564504537   -0.688648961773
 H   -2.661790008610    2.103435495463   -0.943648961773
 H   -1.475790008610    1.598435495463   -2.151648961773
 H    0.504209991390    0.401435495463   -1.387648961773
 H   -0.851790008610   -0.942564504537    1.631351038227
 H    0.712209991390   -1.505564504537    2.161351038227
 H    2.395209991390   -0.387564504537   -0.780648961773
 H    2.596209991390   -1.242564504537    0.742351038227
 H   -0.955730008610    2.610275495463   -0.765298961773
