8
0 1 
 C    0.037083884401    0.001404741644   -0.765800908111
 C   -0.043916115599   -0.001595258356    0.764199091889
 H   -0.044916115599    1.016404741644   -1.151800908111
 H    1.000083884401   -0.395595258356   -1.078800908111
 H   -0.752916115599   -0.621595258356   -1.183800908111
 H    0.706083884401    0.695404741644    1.140199091889
 H   -1.028770115599    0.309444741644    1.142768091889
 H    0.201784784401   -1.001795258356    1.150508091889
