9
0 1 
 C   -1.211996981564    0.701618928465    0.350818956163
 C    0.071003018436   -0.014381071535    0.014818956163
 O    1.104003018436    0.254618928465    0.621818956163
 N    0.033003018436   -0.915381071535   -0.946181043837
 H   -1.986996981564    0.835618928465   -0.366181043837
 H   -0.881996981564    1.741618928465    0.354818956163
 H    0.881003018436   -1.408381071535   -1.178181043837
 H   -0.869996981564   -1.224381071535   -1.277181043837
 H   -1.536276981564    0.550338928465    1.390988956163
