12
0 1 
 C   -0.788724602564    0.622361341004    0.292759352077
 C   -0.472724602564    1.461361341004    1.511759352077
 C    0.038275397436   -1.022638658996   -1.645240647923
 S    0.585275397436   -0.487638658996   -0.041240647923
 H   -1.691724602564    0.043361341004    0.466759352077
 H   -0.940724602564    1.271361341004   -0.569240647923
 H    0.503275397436    1.930361341004    1.383759352077
 H   -0.411724602564    0.789361341004    2.368759352077
 H   -0.245724602564   -0.182638658996   -2.267240647923
 H    0.840275397436   -1.572638658996   -2.137240647923
 H   -0.824724602564   -1.678638658996   -1.532240647923
 H   -1.231984602564    2.235091341004    1.698499352077
