15
0 1 
 C    1.175002753495    0.647058836140   -1.202123595461
 C    0.722002753495    0.247058836140   -2.602123595461
 C    0.261002753495    0.186058836140   -0.103123595461
 C   -1.064997246505   -0.105941163860   -0.122123595461
 C   -0.333997246505   -0.434941163860    1.922876404539
 N    0.698002753495   -0.026941163860    1.190876404539
 N   -1.412997246505   -0.489941163860    1.151876404539
 H    2.161002753495    0.226058836140   -1.015123595461
 H    1.236002753495    1.732058836140   -1.147123595461
 H    0.516002753495   -0.820941163860   -2.585123595461
 H   -1.705997246505   -0.093941163860   -0.974123595461
 H   -0.302997246505   -0.697941163860    2.975876404539
 H   -2.324997246505   -0.824941163860    1.471876404539
 H    1.523215753495    0.465848836140   -3.323363595461
 H   -0.205295246505    0.774258836140   -2.870783595461
