9
0 1 
 C   -0.804161644133    1.154749637268    0.354292377701
 C    0.074838355867   -0.032250362732    0.013292377701
 O    1.182838355867   -0.163250362732    0.525292377701
 N   -0.421161644133   -0.909250362732   -0.839707622299
 H    0.091838355867   -1.756250362732   -1.059707622299
 H   -1.322161644133   -0.746250362732   -1.277707622299
 H   -1.256161644133    1.544749637268   -0.558707622299
 H   -0.159161644133    1.924749637268    0.773292377701
 H   -1.591161644133    0.891939637268    1.076482377701
