8
0 1 
 C    0.642656197833    0.282847949842    0.266905306106
 C   -0.643343802167   -0.284152050158   -0.268094693894
 H    0.442656197833    1.049847949842    1.018905306106
 H    1.242656197833   -0.508152050158    0.715905306106
 H    1.213656197833    0.728847949842   -0.548094693894
 H   -0.424343802167   -1.060152050158   -0.996094693894
 H   -1.232953802167    0.521517949842   -0.729894693894
 H   -1.233483802167   -0.716382050158    0.553435306106
