8
0 1 
 C    0.555416761056    0.477888780617   -0.229710183627
 C   -0.553583238944   -0.483111219383    0.227289816373
 H    1.008416761056    0.121888780617   -1.156710183627
 H    0.134416761056    1.467888780617   -0.399710183627
 H    1.321416761056    0.582888780617    0.540289816373
 H   -0.930583238944   -0.120111219383    1.182289816373
 H   -0.175061238944   -1.507261219383    0.360839816373
 H   -1.380437238944   -0.483111219383   -0.498180183627
