11
0 1 
 C   -0.259976251709   -0.197598720302   -0.452820473086
 C    1.042023748291   -0.799598720302    0.068179526914
 C   -0.791976251709    0.993401279698    0.350179526914
 H   -0.161976251709    0.068401279698   -1.505820473086
 H   -0.998976251709   -0.980598720302   -0.340820473086
 H    1.825023748291   -0.042598720302    0.073179526914
 H   -0.790976251709    0.767401279698    1.414179526914
 H    1.356383748291   -1.655158720302   -0.547610473086
 H    0.888893748291   -1.188588720302    1.085649526914
 H   -0.167026251709    1.881221279698    0.173489526914
 H   -1.833126251709    1.195121279698    0.058079526914
