11
0 1 
 C   -0.333724837665   -0.037365827210   -0.558002879212
 C    0.275275162335    1.179634172790    0.100997120788
 C    0.037275162335   -1.138365827210    0.410997120788
 H    0.085275162335   -0.212365827210   -1.550002879212
 H   -1.417724837665    0.072634172790   -0.609002879212
 H    1.288275162335    1.081634172790   -0.176002879212
 H   -0.188724837665    2.099634172790   -0.255002879212
 H    1.095275162335   -1.374365827210    0.315997120788
 H   -0.571724837665   -2.031365827210    0.264997120788
 H    0.125975162335    0.983824172790    1.173087120788
 H   -0.164504837665   -0.666095827210    1.383747120788
