9
0 1 
 C   -1.381751879123    0.402603214026   -0.073978436418
 C    0.040248120877   -0.074396785974   -0.007978436418
 O    0.340248120877   -1.240396785974   -0.193978436418
 N    0.950248120877    0.851603214026    0.250021563582
 H   -1.438751879123    1.460603214026    0.192021563582
 H   -1.953751879123   -0.146396785974    0.672021563582
 H    1.910248120877    0.557603214026    0.358021563582
 H    0.679248120877    1.807603214026    0.429021563582
 H   -1.827001879123    0.266213214026   -1.070548436418
