10
-1 1 
 C   -0.684327683436   -0.652832893353    0.508119613818
 C   -1.170327683436    0.324167106647    1.573119613818
 C    0.342672316564   -0.057832893353   -0.440880386182
 O    0.980672316564    0.960167106647   -0.087880386182
 O    0.510672316564   -0.623832893353   -1.546880386182
 H   -0.279327683436   -1.543832893353    0.992119613818
 H   -1.556327683436   -0.892832893353   -0.093880386182
 H   -1.415327683436    1.286167106647    1.121119613818
 H   -0.361327683436    0.474167106647    2.289119613818
 H   -2.053487683436   -0.059562893353    2.104889613818
