12
0 1 
 C    0.301871229069    0.154529282855   -0.127356416058
 C    0.572871229069   -0.206470717145    1.342643583942
 C    0.021871229069   -1.087470717145   -0.955356416058
 O   -0.826128770931    1.021529282855   -0.215356416058
 H    1.173871229069    0.664529282855   -0.538356416058
 H   -0.279128770931   -0.776470717145    1.716643583942
 H   -0.817128770931   -1.641470717145   -0.532356416058
 H   -0.222128770931   -0.793470717145   -1.976356416058
 H    0.897871229069   -1.731470717145   -0.985356416058
 H   -0.488128770931    1.780529282855   -0.744356416058
 H    0.703302029069    0.694479282855    1.960116583942
 H    1.466908129069   -0.842280717145    1.422933583942
