7
-1 1 
 C    0.853641380236    0.508017728220    1.016412305825
 C   -0.048358619764   -0.017982271780   -0.075587694175
 O   -1.188358619764    0.489017728220   -0.200587694175
 O    0.381641380236   -0.976982271780   -0.751587694175
 H    1.652641380236   -0.202982271780    1.236412305825
 H    0.265641380236    0.635017728220    1.928412305825
 H    1.296541380236    1.477547728220    0.744652305825
