8
0 1 
 C    0.389686843432   -0.379662677123    0.532131617532
 C   -0.392313156568    0.379337322877   -0.531868382468
 H   -0.299313156568   -0.871662677123    1.218131617532
 H    1.021686843432   -1.136662677123    0.070131617532
 H    1.018686843432    0.315337322877    1.089131617532
 H    0.322686843432    0.932337322877   -1.138868382468
 H   -1.093303156568    1.081777322877   -0.057327382468
 H   -0.939173156568   -0.317252677123   -1.184333382468
