8
0 1 
 C   -0.664921299738    0.378593458598    0.009891095928
 C    0.667078700262   -0.376406541402   -0.009108904072
 H   -0.629921299738    1.244593458598   -0.647108904072
 H   -1.466921299738   -0.279406541402   -0.322108904072
 H   -0.880921299738    0.713593458598    1.021891095928
 H    0.826078700262   -0.767406541402   -1.015108904072
 H    1.499938700262    0.288153458598    0.264196095928
 H    0.626058700262   -1.225566541402    0.688926095928
