16
0 1 
 C   -1.961353451656   -1.924343740589    1.046341724198
 C   -1.259353451656   -0.120343740589   -0.584658275802
 C   -0.938353451656   -0.960343740589    0.486341724198
 C   -0.332353451656    0.805656259411   -1.068658275802
 C    0.925646548344    0.901656259411   -0.474658275802
 C    0.329646548344   -0.854343740589    1.068341724198
 C    1.259646548344    0.070656259411    0.593341724198
 O    1.813646548344    1.821656259411   -0.929658275802
 H   -2.245353451656   -0.156343740589   -1.029658275802
 H   -0.592353451656    1.448656259411   -1.891658275802
 H   -2.881353451656   -1.372343740589    1.215341724198
 H   -1.617353451656   -2.269343740589    2.022341724198
 H    0.591646548344   -1.470343740589    1.915341724198
 H    1.448646548344    2.341656259411   -1.649658275802
 H    2.235646548344    0.154656259411    1.047341724198
 H   -2.189873451656   -2.804653740589    0.427611724198
