6
0 1 
 C   -0.409188909270    0.514390308740   -0.313781384430
 O    0.338811090730   -0.513609691260    0.313218615570
 H    1.296811090730   -0.313609691260    0.206218615570
 H   -0.238188909270    0.471390308740   -1.388781384430
 H   -0.082188909270    1.487390308740    0.055218615570
 H   -1.481468909270    0.381430308740   -0.107521384430
