8
0 1 
 C    0.059772632479    0.458654973094    0.608286429600
 C   -0.058227367521   -0.462345026906   -0.604713570400
 H    1.007772632479    0.294654973094    1.123286429600
 H    0.004772632479    1.495654973094    0.277286429600
 H   -0.759227367521    0.275654973094    1.304286429600
 H   -0.881227367521   -0.115345026906   -1.229713570400
 H   -0.256747367521   -1.506176026906   -0.320096570400
 H    0.866257632479   -0.400507026906   -1.197590570400
