8
0 1 
 C   -0.011057351453    0.415789326612   -0.625365636861
 C    0.005942648547   -0.404210673388    0.630634363139
 H    0.074942648547    1.485789326612   -0.448365636861
 H    0.809942648547    0.091789326612   -1.257365636861
 H   -0.899057351453    0.158789326612   -1.154365636861
 H   -0.026057351453   -1.458210673388    0.347634363139
 H   -0.850595351453   -0.200683673388    1.290114363139
 H    0.951724648547   -0.215338673388    1.159614363139
