8
1 1 
 C   -0.437539980547   -0.390283385915   -0.541934102547
 N    0.382460019453    0.345716614085    0.484065897453
 H    0.528460019453   -0.198283385915    1.332065897453
 H    1.307460019453    0.534716614085    0.111065897453
 H   -0.035539980547    1.235716614085    0.732065897453
 H    0.058460019453   -1.333283385915   -0.800934102547
 H   -0.505539980547    0.210716614085   -1.455934102547
 H   -1.457619980547   -0.606053385915   -0.191394102547
