14
0 1 
 C   -0.311641781897    0.202667599529   -0.038830682468
 C   -0.491641781897   -0.744332400471    1.197169317532
 C    0.870358218103    1.176667599529    0.182169317532
 C   -0.105641781897   -0.603332400471   -1.343830682468
 H   -1.227641781897    0.783667599529   -0.176830682468
 H   -1.167641781897   -1.559332400471    0.943169317532
 H    1.790358218103    0.615667599529    0.321169317532
 H    0.983358218103    1.830667599529   -0.682830682468
 H    0.689358218103    1.784667599529    1.069169317532
 H    0.148358218103    0.082667599529   -2.154830682468
 H    0.715358218103   -1.305332400471   -1.203830682468
 H   -0.887251781897   -0.182572400471    2.056189317532
 H    0.432228218103   -1.269892400471    1.480439317532
 H   -1.017271781897   -1.157302400471   -1.612250682468
