8
0 1 
 C    0.079969918864    0.068296787295   -0.753566199774
 C   -0.079030081136   -0.071703212705    0.755433800226
 H    0.226969918864   -0.911703212705   -1.211566199774
 H   -0.816030081136    0.526296787295   -1.176566199774
 H    0.932969918864    0.711296787295   -0.974566199774
 H   -0.162030081136    0.927296787295    1.179433800226
 H    0.802789918864   -0.579091212705    1.173703800226
 H   -0.995860081136   -0.633536212705    0.987323800226
