8
0 1 
 C    0.366055975309   -0.440147338021   -0.540296492102
 C   -0.366944024691    0.435852661979    0.536703507898
 H    0.016055975309   -0.181147338021   -1.538296492102
 H    1.443055975309   -0.263147338021   -0.494296492102
 H    0.172055975309   -1.499147338021   -0.358296492102
 H   -0.162944024691    1.490852661979    0.352703507898
 H    0.003055975309    0.182852661979    1.522703507898
 H   -1.460706024691    0.320872661979    0.558263507898
