19
0 1 
 C   -1.727531612426   -2.444695135433   -0.070963019271
 C   -0.760531612426   -1.373695135433   -0.512963019271
 C   -0.217531612426   -1.261695135433   -1.737963019271
 C   -0.268531612426   -0.258695135433    0.258036980729
 C    0.588468387574    0.513304864567   -0.584963019271
 C   -0.471531612426    0.170304864567    1.590036980729
 C    1.230468387574    1.676304864567   -0.140963019271
 C    0.169468387574    1.334304864567    2.041036980729
 C    1.010468387574    2.082304864567    1.182036980729
 N    0.603468387574   -0.130695135433   -1.809963019271
 H   -2.061531612426   -2.974695135433   -0.967963019271
 H   -2.586531612426   -1.932695135433    0.367036980729
 H   -0.472531612426   -2.013695135433   -2.475963019271
 H    1.128468387574    0.180304864567   -2.621963019271
 H   -1.114531612426   -0.371695135433    2.277036980729
 H    1.870468387574    2.222304864567   -0.821963019271
 H    0.002468387574    1.647304864567    3.067036980729
 H    1.488468387574    2.981304864567    1.551036980729
 H   -1.319761612426   -3.134655135433    0.682486980729
