8
0 1 
 C    0.581612246747   -0.489245541362   -0.096639868784
 C   -0.584387753253    0.491754458638    0.096360131216
 H    1.533612246747    0.042754458638   -0.086639868784
 H    0.580612246747   -1.227245541362    0.703360131216
 H    0.477612246747   -1.019245541362   -1.046639868784
 H   -0.376387753253    1.106754458637    0.968360131216
 H   -0.657167753253    1.118254458638   -0.804859868784
 H   -1.525233753253   -0.051145541362    0.269750131216
