8
0 1 
 C   -0.618716466477   -0.247329166504   -0.368032116621
 C    0.620283533523    0.248670833496    0.364967883379
 H   -0.512716466477   -0.086329166504   -1.442032116621
 H   -0.756716466477   -1.307329166504   -0.162032116621
 H   -1.496716466477    0.289670833496   -0.008032116621
 H    0.497283533523    0.035670833496    1.424967883379
 H    0.734773533523    1.332720833496    0.217565883379
 H    1.515433533523   -0.280379166504    0.006047883379
