8
0 1 
 C    0.466264593034   -0.255044700496   -0.536383168600
 C   -0.468735406966    0.250955299504    0.537616831400
 H    0.076264593034   -1.172044700496   -0.979383168600
 H    0.580264593034    0.500955299504   -1.309383168600
 H    1.459264593034   -0.449044700496   -0.133383168600
 H   -0.025735406966    1.144955299504    0.979616831400
 H   -0.620356406966   -0.496994700496    1.329816831400
 H   -1.440282406966    0.520865299504    0.098026831400
