11
0 1 
 C    0.322011972107    0.280327457422    0.378937959742
 C    0.811011972107   -0.102672542578   -1.023062040258
 C   -1.112988027893   -0.155672542578    0.658937959742
 H    0.946011972107   -0.211672542578    1.124937959742
 H    0.421011972107    1.354327457422    0.541937959742
 H    0.289011972107   -0.996672542578   -1.353062040258
 H   -1.231988027893   -1.217672542578    0.442937959742
 H   -1.334988027893    0.010327457422    1.713937959742
 H   -1.828988027893    0.415327457422    0.073937959742
 H    0.616421972107    0.723777457422   -1.722422040258
 H    1.884941972107   -0.339482542578   -0.998592040258
