8
0 1 
 C   -0.681949055942    0.107683350287   -0.333916743817
 C    0.681050944058   -0.105316649713    0.335083256183
 H   -0.612949055942    0.847683350287   -1.123916743817
 H   -1.020949055942   -0.829316649713   -0.777916743817
 H   -1.429949055942    0.420683350287    0.395083256183
 H    0.654050944058   -1.020316649713    0.929083256183
 H    0.939312944058    0.748993350287    0.978088256183
 H    1.481176944058   -0.195906649713   -0.414310743817
