16
0 1 
 C   -1.810801165543    0.612839434713    2.237343156166
 C    0.840198834457   -0.292160565287   -1.054656843834
 C    1.259198834457    0.534839434713   -0.014656843834
 C   -0.444801165543   -0.833160565287   -1.027656843834
 C    0.394198834457    0.828839434713    1.038343156166
 C   -1.302801165543   -0.539160565287    0.040343156166
 C   -0.893801165543    0.302839434713    1.076343156166
 O    1.697198834457   -0.580160565287   -2.081656843834
 H    2.257198834457    0.951839434713   -0.020656843834
 H    2.517198834457   -0.078160565287   -2.017656843834
 H   -0.766801165543   -1.478160565287   -1.830656843834
 H    0.741198834457    1.464839434713    1.843343156166
 H   -2.289801165543   -0.977160565287    0.060343156166
 H   -1.197801165543    0.618839434713    3.133343156166
 H   -2.536801165543   -0.192160565287    2.346343156166
 H   -2.339357165543    1.576469434713    2.192043156166
