19
0 1 
 C   -1.190886642721    2.003522018674    1.795204000893
 C    0.848113357279   -0.230477981326   -0.416795999107
 C   -0.374886642721    0.150522018674    0.190204000893
 C   -0.147886642721    1.326522018674    0.956204000893
 C    1.175113357279    1.615522018674    0.821204000893
 C    0.959113357279   -1.343477981326   -1.239795999107
 C   -0.186886642721   -2.099477981326   -1.458795999107
 C   -1.508886642721   -0.639477981326   -0.027795999107
 C   -1.403886642721   -1.761477981326   -0.847795999107
 N    1.774113357279    0.691522018674   -0.013795999107
 H    2.782113357279    0.613522018674   -0.106795999107
 H    1.899113357279   -1.611477981326   -1.693795999107
 H    1.702113357279    2.422522018674    1.309204000893
 H   -0.133886642721   -2.980477981326   -2.079795999107
 H   -2.435886642721   -0.391477981326    0.460204000893
 H   -1.227886642721    1.410522018674    2.691204000893
 H   -2.146886642721    1.904522018674    1.280204000893
 H   -2.271886642721   -2.384477981326   -1.010795999107
 H   -1.015896642721    3.057047018674    2.058764000893
