11
0 1 
 C    0.475467158540    0.075559669622    0.281675276718
 C   -0.521532841460    1.206559669622    0.040675276718
 C    0.061467158540   -1.274440330378   -0.300324723282
 H    1.412467158540    0.350559669622   -0.200324723282
 H    0.676467158540   -0.021440330378    1.349675276718
 H   -1.423532841460    1.003559669622    0.619675276718
 H   -0.193532841460   -1.175440330378   -1.355324723282
 H    0.941467158540   -1.920440330378   -0.260324723282
 H   -0.759252841460    1.302099669622   -1.029074723282
 H   -0.087252841460    2.158939669622    0.378855276718
 H   -0.750212841460   -1.789270330378    0.234585276718
