15
0 1 
 C    1.279412568431    2.011921368342   -0.495100985864
 C   -1.546587431569   -0.507078631658   -0.356100985864
 C   -0.836587431569    0.657921368342   -0.625100985864
 C   -0.945587431569   -1.527078631658    0.381899014136
 C    0.477412568431    0.782921368342   -0.178100985864
 C    0.354412568431   -1.417078631658    0.797899014136
 C    1.052412568431   -0.252078631658    0.544899014136
 H   -2.567587431569   -0.615078631658   -0.693100985864
 H   -1.300587431569    1.450921368342   -1.195100985864
 H   -1.504587431569   -2.426078631658    0.602899014136
 H    0.817412568431   -2.222078631658    1.351899014136
 H    1.068412568431    2.294921368342   -1.528100985864
 H    2.346412568431    1.791921368342   -0.436100985864
 H    2.067412568431   -0.159078631658    0.907899014136
 H    1.039072568431    2.867811368342    0.152739014136
