19
0 1 
 C    0.468792098070   -2.462210532941    0.393269706057
 C   -0.307207901930   -3.285210532941   -0.627730293943
 C    0.263792098070   -0.968210532941    0.236269706057
 C   -0.874207901930   -0.352210532941    0.753269706057
 C    1.191792098070   -0.174210532941   -0.452730293943
 C   -1.081207901930    1.011789467059    0.619269706057
 C    0.993792098070    1.190789467059   -0.583730293943
 C   -0.135207901930    1.785789467059   -0.048730293943
 O   -0.334207901930    3.124789467059   -0.181730293943
 H    0.131792098070   -2.754210532941    1.389269706057
 H    1.533792098070   -2.685210532941    0.325269706057
 H   -1.371207901930   -3.076210532941   -0.505730293943
 H   -1.616207901930   -0.953210532941    1.266269706057
 H    2.080792098070   -0.625210532941   -0.874730293943
 H   -1.984207901930    1.458789467059    1.000269706057
 H    1.720792098070    1.798789467059   -1.103730293943
 H   -1.239207901930    3.312789467059    0.050269706057
 H   -0.127887901930   -4.358120532941   -0.464297293943
 H   -0.019887901930   -2.969810532941   -1.641619293943
