9
0 1 
 C    0.417697862507    0.199934106844   -1.388249899314
 C   -0.068302137493    0.002934106844    0.045750100686
 O   -1.202302137493    0.336934106844    0.380750100686
 N    0.790697862507   -0.522065893156    0.908750100686
 H    0.515697862507   -0.562065893156    1.879750100686
 H    1.733697862507   -0.711065893156    0.608750100686
 H    0.727697862507   -0.757065893156   -1.804249899314
 H    1.297697862507    0.843934106844   -1.341249899314
 H   -0.339812137493    0.677124106844   -2.027357899314
