19
0 1 
 C   -0.991416603050    1.889643392494    1.382088069953
 C   -0.016416603050    3.011643392494    1.734088069953
 C   -0.438416603050    0.747643392494    0.507088069953
 C    0.752583396950    0.092643392494    0.839088069953
 C   -1.184416603050    0.243643392494   -0.554911930047
 C    1.200583396950   -1.008356607506    0.109088069953
 C   -0.748416603050   -0.847356607506   -1.291911930047
 C    0.460583396950   -1.462356607506   -0.988911930047
 O    0.785583396950   -2.565356607506   -1.715911930047
 H   -1.317416603050    1.444643392494    2.321088069953
 H   -1.869416603050    2.303643392494    0.895088069953
 H    0.806583396950    2.582643392494    2.307088069953
 H    1.333583396950    0.453643392494    1.674088069953
 H   -2.132416603050    0.702643392494   -0.806911930047
 H    2.123583396950   -1.501356607506    0.366088069953
 H   -1.346416603050   -1.228356607506   -2.104911930047
 H    1.525583396950   -3.029356607506   -1.269911930047
 H   -0.510206603050    3.770232392494    2.359158069953
 H    0.412813396950    3.458427392494    0.825168069953
