9
0 1 
 C   -0.374238270391   -1.408742396474    0.000284720387
 C    0.035761729609    0.056257603526    0.050284720387
 O    0.608761729609    0.528257603526    1.031284720387
 N   -0.252238270391    0.785257603526   -1.013715279613
 H   -0.009238270391    1.761257603526   -1.020715279613
 H   -0.641238270391    0.330257603526   -1.841715279613
 H   -1.031238270391   -1.572742396474   -0.853715279613
 H   -0.935238270391   -1.624742396474    0.906284720387
 H    0.490331729609   -2.084701396474   -0.074582279613
