8
0 1 
 C    0.392505450054    0.625821541987   -0.197465703170
 C   -0.395494549946   -0.623178458013    0.200534296830
 H    0.152505450054    1.437821541987    0.488534296830
 H    1.462505450054    0.423821541987   -0.149465703170
 H    0.129505450054    0.920821541987   -1.213465703170
 H   -0.093494549946   -1.424178458013   -0.478465703170
 H   -1.477875549946   -0.460368458013    0.091241296830
 H   -0.137555549946   -0.929388458013    1.225084296830
