11
0 1 
 C   -0.550520094786   -0.065560523106   -0.037277723335
 C    0.439479905214   -1.247560523106   -0.054277723335
 C    0.081479905214    1.309439476894    0.083722276665
 H   -1.132520094786   -0.091560523106   -0.958277723335
 H   -1.237520094786   -0.205560523106    0.793722276665
 H    1.127479905214   -1.138560523106   -0.891277723335
 H    0.679479905214    1.335439476894    0.992722276665
 H   -0.144640094786   -2.173490523106   -0.161377723335
 H    1.001739905214   -1.302990523106    0.889542276665
 H    0.749279905214    1.535429476894   -0.760657723335
 H   -0.691330094786    2.085129476894    0.188872276665
