12
0 1 
 C   -1.519248210611    0.791646377334   -1.425246449874
 C    1.452751789389   -0.191353622666    0.463753550126
 C   -0.717248210611   -0.495353622666    0.697753550126
 C   -0.514248210611    0.236646377334   -0.433246449874
 N    0.528751789389   -0.751353622666    1.240753550126
 N    0.855751789389    0.414646377334   -0.568246449874
 H    0.696751789389   -1.237353622666    2.122753550126
 H    2.510751789389   -0.201353622666    0.654753550126
 H   -1.672248210611   -0.789353622666    1.103753550126
 H   -1.447248210611    1.872646377334   -1.395246449874
 H   -2.500248210611    0.504646377334   -1.067246449874
 H   -1.369558210611    0.461896377334   -2.463926449874
