8
0 1 
 C    0.626791264411   -0.136496503033   -0.413332179509
 C   -0.628208735589    0.134503496967    0.415667820491
 H    0.405791264411    0.007503496967   -1.470332179509
 H    1.413791264411    0.554503496967   -0.120332179509
 H    0.968791264411   -1.157496503033   -0.252332179509
 H   -0.950208735589    1.156503496967    0.214667820491
 H   -1.418928735589   -0.567880103033    0.113312820491
 H   -0.402358735589    0.030596496967    1.487205820491
