8
0 1 
 C    0.657625674909    0.106098138130    0.373577162155
 C   -0.658374325091   -0.100901861870   -0.376422837845
 H    0.483625674909    0.525098138130    1.363577162155
 H    1.155625674909   -0.855901861870    0.496577162155
 H    1.307625674909    0.777098138130   -0.191422837845
 H   -1.241374325091   -0.836901861870    0.176577162155
 H   -1.232609325091    0.835708138130   -0.431349837845
 H   -0.463979325091   -0.506971861870   -1.380075837845
