10
-1 1 
 C    0.499583164982   -0.321638746711   -0.906181244995
 C    1.922583164982   -0.300638746711   -0.361181244995
 C   -0.533416835018    0.091361253289    0.132818755005
 O   -0.343416835018   -0.208638746711    1.330818755005
 O   -1.547416835018    0.717361253289   -0.245181244995
 H    0.478583164982    0.405361253289   -1.720181244995
 H    0.242583164982   -1.276638746711   -1.348181244995
 H    2.000583164982   -1.064638746711    0.399818755005
 H    2.119583164982    0.674361253289    0.084818755005
 H    2.678553164982   -0.490711646711   -1.137312244995
