9
0 1 
 C    0.167594537812   -0.451175267486    0.296787075478
 C    0.863594537812    0.024824732514   -0.984212924522
 O   -0.970405462188    0.338824732514    0.631787075478
 H   -0.172405462188   -1.476175267486    0.163787075478
 H    0.879594537812   -0.441175267486    1.121787075478
 H    1.417594537812   -0.826175267486   -1.384212924522
 H   -0.686405462188    1.268824732514    0.756787075478
 H    1.564534537812    0.843724732514   -0.764932924522
 H    0.119934537812    0.330064732514   -1.735072924522
