8
0 1 
 C   -0.681572891806    0.024590668893   -0.343731459605
 C    0.680427108194   -0.023409331107    0.345268540395
 H   -0.771572891806    0.924590668893   -0.951731459605
 H   -0.787572891806   -0.849409331107   -0.986731459605
 H   -1.474572891806    0.010590668893    0.401268540395
 H    0.711427108194   -0.908409331107    0.983268540395
 H    0.845517108194    0.892170668893    0.932177540395
 H    1.490417108194   -0.083599331107   -0.396553459605
