16
1 1 
 C    0.508129394149    0.719625874284    1.290222769850
 C    1.640129394149   -0.015374125716    2.038222769850
 C   -0.532870605851   -0.163374125716   -0.802777230150
 N   -0.417870605851   -0.139374125716    0.520222769850
 N    0.278129394149    0.538625874284   -1.566777230150
 N   -1.463870605851   -0.906374125716   -1.371777230150
 H   -0.089870605851    1.238625874284    2.042222769850
 H    0.948129394149    1.488625874284    0.654222769850
 H    2.219129394149   -0.611374125716    1.331222769850
 H    1.196129394149   -0.684374125716    2.777222769850
 H   -1.121870605851   -0.680374125716    1.022222769850
 H    1.047129394149    1.040625874284   -1.158777230150
 H    0.217129394149    0.465625874284   -2.570777230150
 H   -2.109870605851   -1.380374125716   -0.739777230150
 H   -1.565870605851   -0.971374125716   -2.370777230150
 H    2.306829394149    0.700365874284    2.541442769850
