8
0 1 
 C   -0.351154022435   -0.671136575954    0.084357218837
 C    0.356845977565    0.671863424046   -0.083642781163
 H   -0.681154022435   -0.782136575954    1.111357218837
 H   -1.232154022435   -0.712136575954   -0.557642781163
 H    0.319845977565   -1.490136575954   -0.175642781163
 H   -0.332154022435    1.469863424046    0.191357218837
 H    1.242145977565    0.712941424046    0.567937218837
 H    0.615696977565    0.792950424046   -1.145872781163
