15
0 1 
 C   -1.125254389922    0.718650397512   -2.035996217595
 C   -0.464254389922   -1.057349602488   -0.399996217595
 C   -0.427254389922    0.275650397512   -0.787996217595
 C    0.177745610078   -1.469349602488    0.759003782405
 C    0.246745610078    1.198650397512    0.006003782405
 C    0.853745610078   -0.547349602488    1.545003782405
 C    0.888745610078    0.788650397512    1.168003782405
 H   -0.998254389922   -1.778349602488   -0.998996217595
 H    0.162745610078   -2.511349602488    1.037003782405
 H   -1.362254389922    1.781650397512   -1.953996217595
 H   -2.072254389922    0.182650397512   -2.090996217595
 H    0.277745610078    2.240650397512   -0.280996217595
 H    1.352745610078   -0.871349602488    2.448003782405
 H    1.413745610078    1.509650397512    1.781003782405
 H   -0.562854389922    0.547200397512   -2.965676217595
