8
0 1 
 C    0.366272922862    0.051214587154    0.666957418376
 C   -0.366727077138   -0.044785412846   -0.670042581624
 H   -0.328727077138   -0.040785412846    1.498957418376
 H    1.086272922862   -0.762785412846    0.740957418376
 H    0.896272922862    1.002214587154    0.742957418376
 H   -0.874727077138   -1.007785412846   -0.700042581624
 H   -1.118167077138    0.755736787154   -0.737172581624
 H    0.344482922862   -0.023146212846   -1.508922581624
