8
0 1 
 C    0.530089998060    0.388327399352    0.376315291743
 C   -0.528910001940   -0.393672600648   -0.375684708257
 H    1.226089998060    0.861327399352   -0.314684708257
 H    0.051089998060    1.177327399352    0.948315291743
 H    1.087089998060   -0.272672600648    1.042315291743
 H   -1.194910001940    0.315327399352   -0.868684708257
 H   -0.056780001940   -1.025562600648   -1.142368708257
 H   -1.126630001940   -0.992102600648    0.327599291743
