15
0 1 
 C   -0.281474851918   -0.477713571135    1.710377973802
 C    0.849525148082   -1.425713571135    2.149377973802
 C   -0.160474851918   -0.022713571135    0.283377973802
 C    0.895525148082   -0.057713571135   -0.578622026198
 C   -0.769474851918    0.954286428865   -1.579622026198
 N   -1.189474851918    0.603286428865   -0.371622026198
 N    0.483525148082    0.548286428865   -1.742622026198
 H   -1.240474851918   -0.969713571135    1.859377973802
 H   -0.260474851918    0.409286428865    2.345377973802
 H    1.797525148082   -0.913713571135    1.972377973802
 H    1.893525148082   -0.403713571135   -0.369622026198
 H   -1.364474851918    1.464286428865   -2.326622026198
 H    1.039525148082    0.697286428865   -2.577622026198
 H    0.818795148082   -2.385853571135    1.613467973802
 H    0.770976148082   -1.639333571135    3.225567973802
