9
0 1 
 C   -1.328141669323   -0.214768196612   -0.526585384224
 C    0.041858330677    0.055231803388    0.055414615776
 O    0.153858330677    0.438231803388    1.231414615776
 N    1.086858330677   -0.216768196612   -0.718585384224
 H   -1.807141669323   -0.953768196612    0.117414615776
 H   -1.215141669323   -0.657768196612   -1.513585384224
 H    1.811858330677   -0.729768196612   -0.255585384224
 H    0.943858330677   -0.385768196612   -1.717585384224
 H   -1.960911669323    0.683441803388   -0.579675384224
