8
0 1 
 C    0.253407392372   -0.713494862378   -0.098781356695
 C   -0.247592607628    0.714505137622    0.104218643305
 H    1.136407392372   -0.904494862378    0.513218643305
 H   -0.531592607628   -1.421494862378    0.172218643305
 H    0.502407392372   -0.880494862378   -1.147781356695
 H   -0.985592607628    0.907505137622   -0.676781356695
 H    0.564737392372    1.449165137622    0.002320643305
 H   -0.755602607628    0.837785137622    1.072063943305
