10
-1 1 
 C    0.824317352979   -0.621891740532   -0.317145538775
 C    1.785317352979    0.485108259468   -0.724145538775
 C   -0.509682647021   -0.106891740532    0.199854461225
 O   -0.740682647021    1.146108259468    0.195854461225
 O   -1.338682647021   -0.950891740532    0.638854461225
 H    0.651317352979   -1.256891740532   -1.189145538775
 H    1.286317352979   -1.254891740532    0.435854461225
 H    1.697317352979    1.333108259468   -0.047145538775
 H    1.525317352979    0.818108259468   -1.730145538775
 H    2.836997352979    0.163738259468   -0.698012538775
