8
0 1 
 C   -0.572602837839    0.019123220621   -0.521321312942
 C    0.578397162161   -0.020876779379    0.517678687058
 H   -0.572602837839   -0.870876779379   -1.135321312942
 H   -1.526602837839    0.060123220621    0.006678687058
 H   -0.482602837839    0.909123220621   -1.144321312942
 H    0.548397162161   -0.974876779379    1.045678687058
 H    0.405397162161    0.783123220621    1.232678687058
 H    1.559022162161    0.114263220621    0.037978687058
