11
0 1 
 C    0.173804566897    0.081881218811    0.534998962807
 C    0.591804566897   -1.126118781189   -0.288001037193
 C   -0.751195433103    1.042881218811   -0.214001037193
 H   -0.336195433103   -0.258118781189    1.429998962807
 H    1.039804566897    0.631881218811    0.861998962807
 H   -0.319195433103   -1.578118781189   -0.682001037193
 H   -0.830195433103    1.970881218811    0.352998962807
 H   -0.314195433103    1.283881218811   -1.183001037193
 H    1.136846566897   -1.850078781189    0.335548962807
 H    1.215869566897   -0.826418781189   -1.142821037193
 H   -1.764360433103    0.642241218811   -0.365611037193
