8
0 1 
 C    0.474611800148   -0.522368539620    0.274397272407
 C   -0.473388199852    0.518631460380   -0.278602727593
 H    1.482611800148   -0.366368539620   -0.102602727593
 H    0.507611800148   -0.446368539620    1.362397272407
 H    0.119611800148   -1.511368539620   -0.005602727593
 H   -0.077388199852    1.503631460380   -0.036602727593
 H   -0.587858199852    0.432961460380   -1.369272727593
 H   -1.459158199852    0.432009460380    0.201757272407
