8
0 1 
 C   -0.204074217170    0.686590227105   -0.260797547261
 C    0.199925782830   -0.686409772895    0.266202452739
 H   -0.943074217170    1.151590227105    0.393202452739
 H    0.668925782830    1.336590227105   -0.325797547261
 H   -0.626074217170    0.590590227105   -1.260797547261
 H    1.042925782830   -1.038409772895   -0.330797547261
 H   -0.617774217170   -1.411979772895    0.144083452739
 H    0.524465782830   -0.630529772895    1.315751452739
