16
1 1 
 C   -0.409595992947   -1.038993735842    0.973633128511
 C   -0.133595992947   -2.535993735842    1.050633128511
 C    0.136404007053    0.871006264158   -0.494366871489
 N    0.212404007053   -0.415993735842   -0.199366871489
 N   -0.555595992947    1.688006264158    0.274633128511
 N    0.745404007053    1.341006264158   -1.563366871489
 H   -1.468595992947   -0.827993735842    1.051633128511
 H    0.028404007053   -0.585993735842    1.866633128511
 H   -0.366595992947   -3.009993735842    0.096633128511
 H   -0.780595992947   -2.966993735842    1.815633128511
 H    0.602404007053   -1.023993735842   -0.903366871489
 H   -1.047595992947    1.318006264158    1.069633128511
 H   -0.624595992947    2.667006264158    0.050633128511
 H    1.308404007053    0.731006264158   -2.135366871489
 H    0.693404007053    2.322006264158   -1.787366871489
 H    0.910444007053   -2.733413735842    1.335243128511
