11
0 1 
 C   -0.497929865403    0.074503814799   -0.297495760373
 C    0.751070134597    0.958503814799   -0.470495760373
 C   -0.291929865403   -1.025496185201    0.755504239627
 H   -1.358929865403    0.684503814799   -0.055495760373
 H   -0.695929865403   -0.408496185201   -1.255495760373
 H    0.677070134597    1.487503814799   -1.421495760373
 H    1.626070134597    0.307503814799   -0.538495760373
 H    0.641070134597   -1.553496185201    0.563504239627
 H   -0.210929865403   -0.545496185201    1.733504239627
 H    0.908390134597    1.682011814799    0.343004239627
 H   -1.124949865403   -1.743472185201    0.779654239627
