14
0 1 
 C   -0.067186933128    0.018402950792    0.365601541532
 C   -0.558186933128    1.312402950792   -0.280398458468
 C   -0.835186933128   -1.216597049208   -0.110398458468
 C    1.433813066872   -0.118597049208    0.075601541532
 H   -0.200186933128    0.098402950792    1.439601541532
 H   -0.014186933128    1.376402950792   -1.215398458468
 H   -0.211186933128    2.153402950792    0.319601541532
 H   -0.811186933128   -1.271597049208   -1.198398458468
 H   -0.368186933128   -2.111597049208    0.301601541532
 H   -1.864186933128   -1.185597049208    0.246601541532
 H    1.968813066872    0.739402950792    0.485601541532
 H    1.816813066872   -1.022597049208    0.552601541532
 H    1.620813066872   -0.175597049208   -0.995398458468
 H   -1.618836933128    1.451622950792   -0.536591458468
