7
-1 1 
 C    1.139819368467   -0.750125881742    0.432601526243
 C   -0.058180631533    0.053874118258   -0.040398473757
 O   -0.620180631533   -0.290125881742   -1.097398473757
 O   -0.460180631533    0.997874118258    0.695601526243
 H    1.004819368467   -1.783125881742    0.102601526243
 H    1.143819368467   -0.765125881742    1.525601526243
 H    2.118591368467   -0.394075881742    0.078711526243
