9
0 1 
 C   -0.856771991098    1.141026472579   -0.285532807713
 C    0.071228008902   -0.032973527421   -0.026532807713
 O    1.159228008902   -0.124973527421   -0.594532807713
 N   -0.345771991098   -0.936973527421    0.844467192287
 H   -1.252771991098    1.482026472579    0.671467192287
 H   -1.701771991098    0.826026472579   -0.889532807713
 H    0.301228008902   -1.655973527421    1.111467192287
 H   -1.239771991098   -0.826973527421    1.300467192287
 H   -0.347086991098    1.983556472579   -0.775812807713
