8
0 1 
 C    0.651641545868    0.001844243955   -0.394473305637
 C   -0.651358454132   -0.000155756045    0.399526694363
 H    1.502641545868   -0.239155756045    0.240526694363
 H    0.584641545868   -0.758155756045   -1.168473305637
 H    0.823641545868    0.967844243955   -0.859473305637
 H   -1.474358454132    0.105844243955   -0.302473305637
 H   -0.672778454132    0.855284243955    1.090736694363
 H   -0.767158454132   -0.951765756045    0.938986694363
