8
0 1 
 C    0.611640097829   -0.018303966150   -0.457061062151
 C   -0.612359902171    0.015696033850    0.459938937849
 H    0.825640097829   -1.042303966150   -0.761061062151
 H    0.422640097829    0.591696033850   -1.342061062151
 H    1.485640097829    0.392696033850    0.044938937849
 H   -0.726359902171    1.027696033850    0.849938937849
 H   -0.488959902171   -0.691888966150    1.293058937849
 H   -1.510029902171   -0.246842966150   -0.119081062151
