9
0 1 
 C    1.222495629792   -0.507913992107   -0.589906167066
 C   -0.051504370208   -0.008913992107    0.059093832934
 O   -0.643504370208   -0.720913992107    0.886093832934
 N   -0.506504370208    1.166086007893   -0.326906167066
 H    1.991495629792    0.246086007893   -0.452906167066
 H    1.064495629792   -0.637913992107   -1.658906167066
 H   -1.351504370208    1.560086007893    0.054093832934
 H    0.042495629792    1.673086007893   -1.012906167066
 H    1.560655629792   -1.448140992107   -0.129887167066
