15
0 1 
 C    2.296752146709    0.515093451070    0.863349822912
 C   -1.716247853291   -0.385906548930   -0.710650177088
 C   -1.600247853291    0.246093451070    0.530349822912
 C   -0.558247853291   -0.741906548930   -1.365650177088
 C   -0.303247853291    0.549093451070    1.063349822912
 C    0.713752146709   -0.440906548930   -0.844650177088
 C    0.874752146709    0.198093451070    0.370349822912
 H   -2.686247853291   -0.613906548930   -1.131650177088
 H   -2.491247853291    0.521093451070    1.079349822912
 H   -0.639247853291   -1.238906548930   -2.320650177088
 H   -0.272247853291    1.027093451070    2.025349822912
 H    1.592752146709   -0.718906548930   -1.408650177088
 H    2.761752146709    1.183093451070    0.136349822912
 H    2.865752146709   -0.414906548930    0.872349822912
 H    2.354280146709    0.973873451070    1.861449822912
