13
1 1 
 C    0.184211039714   -1.637745673931    1.109127336880
 C   -0.033788960286    0.402254326069   -0.272872663120
 N    0.599211039714   -0.713745673931    0.048127336880
 N   -1.122788960286    0.760254326069    0.375127336880
 N    0.424211039714    1.162254326069   -1.246872663120
 H    1.364211039714   -0.990745673931   -0.567872663120
 H   -1.568788960286    0.117254326069    1.017127336880
 H   -1.604788960286    1.640254326069    0.175127336880
 H    1.224211039714    0.820254326069   -1.767872663120
 H   -0.063788960286    2.003254326069   -1.514872663120
 H   -0.166788960286   -2.562745673931    0.645127336880
 H   -0.621788960286   -1.238745673931    1.724127336880
 H    1.027111039714   -1.872972673931    1.775604336880
