8
0 1 
 C    0.597986427114    0.353844718349    0.315948435889
 C   -0.596013572886   -0.357155281651   -0.312051564111
 H    1.458986427114    0.158844718349   -0.316051564111
 H    0.386986427114    1.421844718349    0.326948435889
 H    0.777986427114    0.028844718349    1.340948435889
 H   -1.456013572886   -0.248155281651    0.345948435889
 H   -0.365086572886   -1.422585281651   -0.458811564111
 H   -0.826349572886    0.100624718349   -1.285381564111
