10
-1 1 
 C   -0.943399251057    0.512134451056   -0.126401636365
 C   -1.028399251057    0.402134451056   -1.653401636365
 C    0.315600748943   -0.123865548944    0.441598363635
 O    0.896600748943   -1.022865548944   -0.205401636365
 O    0.717600748943    0.262134451056    1.559598363635
 H   -0.977399251057    1.558134451056    0.155598363635
 H   -1.798399251057    0.059134451056    0.363598363635
 H   -0.649399251057   -0.573865548944   -1.958401636365
 H   -0.402779251057    1.180016451056   -2.115501636365
 H   -2.070509251057    0.438737451056   -2.003601636365
