8
0 1 
 C   -0.492297095852    0.569303021236    0.114934642643
 C    0.488702904148   -0.567696978764   -0.124065357357
 H   -1.335297095852    0.196303021236    0.689934642643
 H   -0.002297095852    1.346303021236    0.695934642643
 H   -0.839297095852    0.987303021236   -0.827065357357
 H    0.818702904148   -0.928696978764    0.841934642643
 H    0.024490904148   -1.424037978764   -0.635135357357
 H    1.376492904148   -0.196296978764   -0.656885357357
