11
0 1 
 C    0.461869777240   -0.249917469197    0.157076684538
 C    0.128869777240    0.022082530803   -1.309923315462
 C   -0.570130222760    0.218082530803    1.157076684538
 H    0.567869777240   -1.329917469197    0.282076684538
 H    1.430869777240    0.190082530803    0.402076684538
 H    0.121869777240    1.103082530803   -1.476923315462
 H   -1.572130222760   -0.105917469197    0.878076684538
 H   -0.324130222760   -0.235917469197    2.118076684538
 H   -0.851280222760   -0.401867469197   -1.573663315462
 H    0.911619777240   -0.415267469197   -1.947123315462
 H   -0.530080222760    1.311842530803    1.267036684538
