8
0 1 
 C   -0.464741745407   -0.022963545946   -0.596017066966
 C    0.468258254593    0.022036454054    0.596982933034
 H    0.062258254593   -0.410963545946   -1.465017066966
 H   -1.310741745407   -0.673963545946   -0.382017066966
 H   -0.837741745407    0.976036454054   -0.820017066966
 H    0.840258254593   -0.980963545946    0.807982933034
 H    1.300418254593    0.708596454054    0.382163933034
 H   -0.096321745407    0.392296454054    1.465403933034
