11
0 1 
 C   -0.441352198985   -0.388083892589   -0.176008853600
 C    0.004647801015   -0.163083892589    1.241991146400
 C    0.404647801015    0.516916107411   -1.084008853600
 H   -1.494352198985   -0.131083892589   -0.246008853600
 H   -0.298352198985   -1.436083892589   -0.426008853600
 H   -0.840352198985    0.037916107411    1.902991146400
 H    0.566647801015   -1.018083892589    1.620991146400
 H   -0.247352198985    0.956916107411   -1.834008853600
 H    1.222647801015   -0.015083892589   -1.577008853600
 H    0.661897801015    0.717716107411    1.195471146400
 H    0.810907801015    1.295616107411   -0.421778853600
