9
0 1 
 C   -0.375336587331   -0.179220440480    0.347387491109
 C    0.335663412669   -1.104220440480   -0.640612508891
 O    0.077663412669    1.155779559520    0.243387491109
 H   -1.447336587331   -0.206220440480    0.145387491109
 H   -0.218336587331   -0.542220440480    1.360387491109
 H   -0.024336587331   -2.116220440480   -0.448612508891
 H   -0.545336587331    1.741779559520    0.720387491109
 H    1.422924412669   -1.083239440480   -0.475013508891
 H    0.052228912669   -0.855228440480   -1.673892508891
