11
1 1 
 C   -0.147397891055    0.571127732948    0.009952283378
 C   -0.844397891055   -0.411872267052    0.941952283377
 N    0.867602108945   -0.108872267052   -0.839047716623
 H   -0.904397891055    1.051127732948   -0.620047716623
 H    0.328602108945    1.350127732948    0.614952283377
 H   -0.107397891055   -0.868872267052    1.604952283378
 H   -1.310397891055   -1.187872267052    0.333952283377
 H    0.446602108945   -0.826872267052   -1.416047716622
 H    1.325602108945    0.547127732948   -1.460047716622
 H    1.587602108945   -0.545872267052   -0.277047716622
 H   -1.611839891055    0.097587732948    1.543192283378
