6
0 1 
 C    0.276776024876   -0.005381816698   -0.669730024752
 O   -0.240223975124   -0.045381816698    0.645269975248
 H   -0.748223975124    0.770618183302    0.769269975248
 H    1.196776024876   -0.591381816698   -0.705730024752
 H    0.515776024876    1.023618183302   -0.942730024752
 H   -0.447323975124   -0.418531816698   -1.387352024752
