15
0 1 
 C    0.374556264926   -1.426217925244    1.953405198585
 C    1.193556264926    0.168782074756    0.192405198585
 C    0.142556264926   -0.562217925244    0.744405198585
 C    0.986556264926    0.993782074756   -0.910594801415
 C   -1.128443735074   -0.446217925244    0.189405198585
 C   -0.279443735074    1.089782074756   -1.480594801415
 C   -1.340443735074    0.361782074756   -0.936594801415
 H    2.186556264926    0.090782074756    0.612405198585
 H    1.810556264926    1.553782074756   -1.329594801415
 H    1.395556264926   -1.804217925244    1.918405198585
 H   -0.287443735074   -2.290217925244    1.922405198585
 H   -1.966443735074   -0.950217925244    0.635405198585
 H   -0.440443735074    1.725782074756   -2.342594801415
 H   -2.328443735074    0.437782074756   -1.371594801415
 H    0.238618264926   -0.900446925244    2.910005198585
