8
0 1 
 C    0.762800136652   -0.054658311895    0.015830401800
 C   -0.761199863348    0.049341688105   -0.018169598200
 H    1.159800136652    0.643341688105    0.752830401800
 H    1.023800136652   -1.059658311895    0.305830401800
 H    1.185800136652    0.195341688105   -0.955169598200
 H   -1.018199863348    1.093341688105   -0.203169598200
 H   -1.182027863348   -0.567968311895   -0.825529598200
 H   -1.188226863348   -0.241094311895    0.953060401800
