8
0 1 
 C   -0.200269999925    0.260417912965   -0.689455405875
 C    0.195730000075   -0.256582087035    0.692544594125
 H   -0.909269999925    1.082417912965   -0.584455405875
 H    0.684730000075    0.617417912965   -1.217455405875
 H   -0.657269999925   -0.542582087035   -1.269455405875
 H    0.938730000075   -1.044582087035    0.555544594125
 H   -0.677422999925   -0.696932087035    1.196224594125
 H    0.674560000075    0.538587912965    1.282814594125
