11
0 1 
 C    0.259259213501    0.484544535088   -0.176353108055
 C   -1.043740786499    0.445544535088    0.573646891945
 C    0.808259213501   -0.891455464912   -0.410353108055
 H    0.113259213501    0.965544535088   -1.144353108055
 H    0.978259213501    1.073544535088    0.393646891945
 H   -0.858740786499    0.009544535088    1.552646891945
 H   -1.744740786499   -0.210455464912    0.051646891945
 H    0.091259213501   -1.401455464912   -1.056353108055
 H    1.773259213501   -0.831455464912   -0.914353108055
 H   -1.521120786499    1.418964535088    0.759576891945
 H    0.885449213501   -1.484235464912    0.513036891945
