11
0 1 
 C   -0.401128966593    0.061116412193    0.492163539444
 C   -0.752128966593   -0.123883587807   -0.938836460556
 C    1.120871033407    0.084116412193    0.488163539444
 H   -0.748128966593   -0.821883587807    1.007163539444
 H   -0.848128966593    0.965116412193    0.897163539444
 H   -1.714128966593   -0.606883587807   -1.005836460556
 H   -0.680128966593    0.806116412193   -1.500836460556
 H    1.473871033407    1.113116412193    0.397163539444
 H   -0.012711966593   -0.869151587807   -1.267226460556
 H    1.378210033407   -0.475086587807   -0.423466460556
 H    1.536772033407   -0.365545587807    1.401853539444
