8
0 1 
 C    0.323767669247   -0.319175684611    0.612266975428
 C   -0.316232330753    0.325824315389   -0.608733024572
 H   -0.119232330753   -0.014175684611    1.557266975428
 H    0.110767669247   -1.376175684611    0.503266975428
 H    1.393767669247   -0.111175684611    0.613266975428
 H   -1.330232330753   -0.050175684611   -0.711733024572
 H   -0.375616330753    1.416654315389   -0.480063024572
 H    0.230823669247    0.055884315389   -1.524083024572
