7
-1 1 
 C    1.286461631093    0.425439922942   -0.513644321174
 C   -0.071538368907   -0.019560077058    0.034355678826
 O   -0.358538368907    0.183439922942    1.238355678826
 O   -0.858538368907   -0.589560077058   -0.752644321174
 H    1.120461631093    1.145439922942   -1.317644321174
 H    1.811461631093   -0.431560077058   -0.936644321174
 H    1.918084631093    0.898799922942    0.252504678826
