8
0 1 
 C    0.543676903603   -0.227473976471    0.497393853027
 C   -0.548323096397    0.232526023529   -0.489606146973
 H    0.085676903603   -0.522473976471    1.441393853027
 H    1.075676903603   -1.086473976471    0.086393853027
 H    1.259676903603    0.576526023529    0.661393853027
 H   -0.076323096397    0.281526023529   -1.472606146973
 H   -0.955583096397    1.224676023529   -0.245096146973
 H   -1.333803096397   -0.533933976471   -0.564206146973
