12
0 1 
 C   -0.097900438953   -0.745786720550    0.768864308197
 C   -0.044900438953   -2.033786720550   -0.065135691803
 C    0.019099561047    0.528213279450   -0.052135691803
 O    0.086099561047    0.501213279450   -1.280135691803
 N    0.036099561047    1.670213279450    0.625864308197
 H   -1.047900438953   -0.664786720550    1.233864308197
 H    0.670099561047   -0.763786720550    1.542864308197
 H   -0.311900438953   -2.849786720550    0.611864308197
 H    0.107099561047    2.534213279450    0.109864308197
 H    0.040099561047    1.672213279450    1.635864308197
 H    0.971144561047   -2.244526720550   -0.430159691803
 H   -0.823794438953   -2.038126720550   -0.841862691803
