8
0 1 
 C   -0.009971886330    0.722197112930   -0.241092978458
 C    0.011028113670   -0.723802887070    0.234907021542
 H   -0.745971886330    0.845197112930   -1.034092978458
 H   -0.270971886330    1.384197112930    0.581907021542
 H    0.975028113670    1.007197112930   -0.613092978458
 H   -0.999971886330   -1.018802887070    0.522907021542
 H    0.626028113670   -0.767802887070    1.126907021542
 H    0.403283113670   -1.430865887070   -0.510879978458
