9
0 1 
 C   -0.658306827564    0.719469090086    1.128190450058
 C    0.881693172436   -1.209530909914   -0.121809549942
 S   -0.117306827564    0.247469090086   -0.511809549942
 H    0.170693172436    0.639469090086    1.833190450058
 H   -0.978306827564    1.756469090086    1.086190450058
 H   -1.481306827564    0.082469090086    1.452190450058
 H    1.593693172436   -0.939530909914    0.659190450058
 H    1.461693172436   -1.480530909914   -0.999809549942
 H    0.295133172436   -2.073930909914    0.222802450058
