18
0 1 
 C   -1.008053506439   -0.919056573336   -1.497278898079
 C   -1.247053506439    0.024943426664   -2.683278898079
 C   -0.273053506439   -0.330056573336   -0.311278898079
 C   -0.111053506439    1.011943426664   -0.111278898079
 C    0.278946493561   -1.181056573336    0.604721101921
 C    0.564946493561    1.482943426664    0.938721101921
 C    0.949946493561   -0.692056573336    1.704721101921
 C    1.102946493561    0.650943426664    1.858721101921
 H   -1.977053506439   -1.275056573336   -1.144278898079
 H   -0.455053506439   -1.786056573336   -1.847278898079
 H   -1.877053506439    0.848943426664   -2.347278898079
 H   -0.543053506439    1.720943426664   -0.797278898079
 H    0.166946493561   -2.249056573336    0.486721101921
 H    0.672946493561    2.551943426664    1.063721101921
 H    1.370946493561   -1.373056573336    2.432721101921
 H    1.642946493561    1.046943426664    2.708721101921
 H   -1.756073506439   -0.524826573336   -3.488668898079
 H   -0.312363506439    0.461233426664   -3.065388898079
