8
0 1 
 C    0.006852932184   -0.762104879071    0.044979997669
 C    0.000852932184    0.762895120929   -0.047020002331
 H    0.710852932184   -1.114104879071    0.795979997669
 H   -0.991147067816   -1.098104879071    0.324979997669
 H    0.264852932184   -1.192104879071   -0.923020002331
 H   -0.248147067816    1.173895120929    0.931979997669
 H   -0.795147067816    1.049895120929   -0.727020002331
 H    0.966982932184    1.171115120929   -0.378610002331
