7
-1 1 
 C   -1.441517662613   -0.048516744228   -0.103661158753
 C    0.070482337387   -0.012516744228    0.024338841247
 O    0.708482337387   -0.851516744228    0.684338841247
 O    0.664482337387    0.902483255772   -0.597661158753
 H   -1.718517662613   -0.117516744228   -1.157661158753
 H   -1.823517662613    0.902483255772    0.275338841247
 H   -1.923227662613   -0.867126744228    0.451161841247
