8
0 1 
 C    0.177782258004    0.010381642922   -0.740909176815
 C   -0.182217741996   -0.008618357078    0.742090823185
 H    1.239782258004    0.221381642922   -0.855909176815
 H   -0.044217741996   -0.952618357078   -1.195909176815
 H   -0.392217741996    0.789381642922   -1.243909176815
 H    0.504782258004   -0.697618357078    1.231090823185
 H   -1.210617741996   -0.375134357078    0.876479923185
 H   -0.044698741996    0.993612642922    1.174087123185
