8
0 1 
 C   -0.716354764548   -0.243352081214   -0.008900258552
 C    0.716645235452    0.243647918786    0.007099741448
 H   -0.845354764548   -1.004352081214   -0.778900258552
 H   -0.968354764548   -0.674352081214    0.961099741448
 H   -1.394354764548    0.583647918786   -0.222900258552
 H    0.814645235452    1.043647918786    0.732099741448
 H    1.021365235452    0.639327918786   -0.973000258552
 H    1.368595235452   -0.591442081214    0.303039741448
