8
0 1 
 C   -0.245443218755    0.715259055056   -0.120494420590
 C    0.250556781245   -0.715740944944    0.122505579410
 H   -1.323443218755    0.701259055056   -0.283494420590
 H   -0.036443218755    1.322259055056    0.759505579410
 H    0.225556781245    1.165259055056   -0.994494420590
 H   -0.056443218755   -1.324740944944   -0.727494420590
 H    1.348140781245   -0.730032394944    0.193965579410
 H   -0.218254218755   -1.128266044944    1.028065579410
