8
0 1 
 C    0.016700868662   -0.722070543888    0.259315520789
 C   -0.024299131338    0.720929456112   -0.259684479211
 H    0.294700868662   -1.405070543888   -0.544684479211
 H    0.757700868662   -0.796070543888    1.055315520789
 H   -0.961299131338   -0.985070543888    0.660315520789
 H    0.994700868662    0.986929456112   -0.527684479211
 H   -0.639216131338    0.801069456112   -1.168234479211
 H   -0.356116131338    1.411799456112    0.529365520789
