8
0 1 
 C    0.525972299387    0.526157031565   -0.176435567378
 C   -0.531027700613   -0.521842968435    0.170564432622
 H    0.163972299387    1.530157031565    0.036564432622
 H    1.418972299387    0.345157031565    0.422564432622
 H    0.784972299387    0.453157031565   -1.232435567378
 H   -0.789027700613   -0.418842968435    1.225564432622
 H   -0.068027700613   -1.499842968435    0.047564432622
 H   -1.450667700613   -0.461151968435   -0.429915567378
