13
1 1 
 C    0.111353316688    0.662276630313   -1.866205240191
 C   -0.021646683312   -0.150723369687    0.462794759809
 N    0.613353316688    0.496276630313   -0.499205240191
 N   -1.198646683312   -0.700723369687    0.226794759809
 N    0.525353316688   -0.259723369687    1.656794759809
 H    1.540353316688    0.863276630313   -0.282205240191
 H   -1.564646683312   -0.701723369687   -0.712205240191
 H   -1.687646683312   -1.196723369687    0.953794759809
 H    1.476353316688    0.066276630313    1.777794759809
 H    0.061353316688   -0.755723369687    2.398794759809
 H   -0.830646683312    1.211276630313   -1.853205240191
 H   -0.064646683312   -0.319723369687   -2.303205240191
 H    0.834233316688    1.191428630313   -2.504515240191
