15
0 1 
 C   -0.406098678422    0.001646819882   -1.744128039313
 C    0.161901321578   -1.243353180118   -2.409128039313
 C   -0.115098678422    0.115646819882   -0.279128039313
 C    0.998901321578    0.584646819882    0.316871960687
 C   -0.463098678422    0.156646819882    1.889871960687
 N   -1.037098678422   -0.127353180118    0.717871960687
 N    0.778901321578    0.570646819882    1.676871960687
 H   -0.027098678422    0.896646819882   -2.235128039313
 H   -1.486098678422    0.019646819882   -1.838128039313
 H    1.241901321578   -1.273353180118   -2.259128039313
 H    1.693901321578    1.137646819882   -0.266128039313
 H   -0.943098678422    0.079646819882    2.858871960687
 H    1.387901321578    0.912646819882    2.416871960687
 H   -0.088228678422   -1.207193180118   -3.479698039313
 H   -0.293328678422   -2.143623180118   -1.970628039313
