8
0 1 
 C   -0.172545616678   -0.161831972512    0.726875224970
 C    0.172454383322    0.165168027488   -0.727124775030
 H   -0.558545616678    0.726168027488    1.229875224970
 H   -0.934545616678   -0.940831972512    0.751875224970
 H    0.704454383322   -0.532831972512    1.256875224970
 H    0.643454383322   -0.711831972512   -1.174124775030
 H    0.874917383322    1.011288027488   -0.752263775030
 H   -0.728648616678    0.408318027488   -1.309265775030
