16
0 1 
 C    2.283757912214    0.165428282208   -1.836303393068
 C   -0.753242087786   -1.165571717792    0.033696606932
 C   -1.068242087786   -0.087571717792    0.853696606932
 C    0.327757912214   -1.080571717792   -0.834303393068
 C    1.103757912214    0.075428282208   -0.894303393068
 C   -0.297242087786    1.067428282208    0.812696606932
 C    0.782757912214    1.144428282208   -0.060303393068
 O   -2.126242087786   -0.167571717792    1.709696606932
 H   -1.341242087786   -2.064571717792    0.094696606932
 H    0.563757912214   -1.922571717792   -1.472303393068
 H   -0.488242087786    1.877428282208    1.500696606932
 H   -2.393242087786    0.703428282208    2.019696606932
 H    2.380757912214    1.197428282208   -2.177303393068
 H    2.061757912214   -0.440571717792   -2.709303393068
 H    1.392757912214    2.039428282208   -0.079303393068
 H    3.238717912214   -0.147401717792   -1.388883393068
