9
0 1 
 C   -0.533942831341    0.026579830811    0.191754480797
 C    0.647057168659   -0.491420169189    1.008754480797
 O   -0.118942831341    0.372579830811   -1.108245519203
 H   -1.294942831341   -0.752420169189    0.139754480797
 H   -0.964942831341    0.902579830811    0.677754480797
 H    0.286057168659   -0.713420169189    2.014754480797
 H    0.070057168659    1.342579830811   -1.178245519203
 H    1.435082168659    0.273249830811    1.074297680797
 H    1.009565168659   -1.430907169189    0.566090480797
