8
0 1 
 C   -0.014498887378    0.754417314025   -0.107210854460
 C    0.015501112622   -0.755582685975    0.104789145540
 H   -0.116498887378    0.990417314025   -1.168210854460
 H   -0.855498887378    1.182417314025    0.437789145540
 H    0.907501112622    1.198417314025    0.263789145540
 H    0.139501112622   -0.932582685975    1.173789145540
 H    0.842641112622   -1.205722685975   -0.463710854460
 H   -0.929578887378   -1.219070685975   -0.214610854460
