9
0 1 
 C   -0.625366553401   -0.360606902082   -0.446881219363
 C   -1.631366553401   -0.227606902082    0.696118780637
 S    1.021633446599    0.285393097918   -0.083881219363
 H   -0.535366553401   -1.418606902082   -0.698881219363
 H   -1.008366553401    0.163393097918   -1.324881219363
 H   -1.696366553401    0.817393097918    0.993118780637
 H    1.647633446599   -0.241606902082   -1.141881219363
 H   -1.327986553401   -0.847136902082    1.552942780637
 H   -2.619139553401   -0.523436902082    0.312986780637
