9
0 1 
 C    1.395035648752   -0.376763957228    0.152495116843
 C   -0.064964351248    0.013236042772    0.046495116843
 O   -0.743964351248    0.203236042772    1.054495116843
 N   -0.560964351248    0.152236042772   -1.176504883157
 H    2.019035648752    0.507236042772    0.096495116843
 H    1.634035648752   -1.024763957228   -0.687504883157
 H   -1.547964351248    0.341236042772   -1.257504883157
 H    0.036035648752    0.060236042772   -2.004504883157
 H    1.623415648752   -0.896203957228    1.094845116843
