12
0 1 
 C    2.123174452666    0.601292717682    0.192496380295
 C   -0.029825547334   -0.697707282318    0.873496380295
 C    0.686174452666    0.169292717682    0.107496380295
 C   -1.359825547334    0.070292717682   -0.699503619705
 N   -1.302825547334   -0.731707282318    0.349496380295
 N   -0.161825547334    0.619292717682   -0.886503619705
 H    0.326174452666   -1.236707282318    1.742496380295
 H   -2.093825547334   -1.212707282318    0.774496380295
 H    2.619174452666    0.215292717682   -0.698503619705
 H    2.586174452666    0.142292717682    1.066496380295
 H   -2.245825547334    0.256292717682   -1.298503619705
 H    2.254404452666    1.692752717682    0.231220380295
