15
0 1 
 C   -0.143729266472   -0.818850936252   -2.326472499349
 C   -1.136729266472    0.324149063748   -0.287472499349
 C   -0.042729266472   -0.282850936252   -0.906472499349
 C   -1.090729266472    0.761149063748    1.037527500651
 C    0.101270733528    0.584149063748    1.783527500651
 C    1.127270733528   -0.446850936252   -0.177472499349
 C    1.204270733528   -0.016850936252    1.172527500651
 H   -2.032729266472    0.442149063748   -0.863472499349
 H   -1.960729266472    1.228149063748    1.485527500651
 H    0.875270733528   -0.949850936252   -2.699472499349
 H   -0.640729266472   -0.056850936252   -2.925472499349
 H    0.173270733528    0.907149063748    2.817527500651
 H    1.977270733528   -0.912850936252   -0.656472499349
 H    2.117270733528   -0.153850936252    1.736527500651
 H   -0.733876266472   -1.742870936252   -2.415452499349
