7
-1 1 
 C   -0.954122343871    0.550134044184    0.878902857723
 C    0.055877656129   -0.016865955816   -0.053097142277
 O    0.869877656129    0.719134044184   -0.658097142277
 O    0.033877656129   -1.246865955816   -0.172097142277
 H   -1.000122343871   -0.063865955816    1.782902857723
 H   -1.929122343871    0.505134044184    0.390902857723
 H   -0.718762343871    1.584688544184    1.169252857723
