11
0 1 
 C   -0.282217981451    0.396067301498    0.311468821039
 C    0.236782018549   -0.906932698502    0.912468821039
 C    0.025782018549    0.537067301498   -1.204531178961
 H   -1.360217981451    0.431067301498    0.474468821039
 H    0.185782018549    1.219067301498    0.850468821039
 H    1.320782018549   -0.948932698502    0.803468821039
 H   -0.212217981451   -1.748932698502    0.382468821039
 H   -0.189217981451    1.559067301498   -1.520531178961
 H    1.073782018549    0.326067301498   -1.381531178961
 H   -0.009067981452   -1.001542698502    1.980458821039
 H   -0.575607981451   -0.147842698502   -1.820341178961
