16
0 1 
 C    2.867610352179   -0.488443398501   -0.337961210537
 C   -1.337389647821    0.247556601499    0.130038789463
 C   -0.489389647821    0.285556601499    1.230038789463
 C   -0.837389647821   -0.068443398501   -1.118961210537
 C    0.860610352179    0.044556601499    1.082038789463
 C    0.522610352179   -0.315443398501   -1.247961210537
 C    1.384610352179   -0.258443398501   -0.160961210537
 O   -2.661389647821    0.490556601499    0.312038789463
 H   -2.888389647821    0.609556601499    1.238038789463
 H   -0.881389647821    0.506556601499    2.210038789463
 H   -1.501389647821   -0.122443398501   -1.967961210537
 H    1.509610352179    0.087556601499    1.943038789463
 H    0.905610352179   -0.590443398501   -2.220961210537
 H    3.019610352179   -1.388443398501   -0.933961210537
 H    3.317610352179   -0.663443398501    0.639038789463
 H    3.378480352179    0.361326601499   -0.814291210537
