19
0 1 
 C    1.040664975321    1.191597426429   -1.974027409003
 C    0.464664975321    2.593597426429   -2.055027409003
 C    0.465664975321    0.396597426429   -0.831027409003
 C    0.846664975321    0.676597426429    0.480972590997
 C   -0.459335024679   -0.623402573571   -1.061027409003
 C    0.331664975321   -0.055402573571    1.547972590997
 C   -0.983335024679   -1.367402573571   -0.000027409003
 C   -0.578335024679   -1.080402573571    1.308972590997
 O   -1.038335024679   -1.795402573571    2.367972590997
 H    0.860664975321    0.668597426429   -2.915027409003
 H    2.121664975321    1.259597426429   -1.836027409003
 H    0.558664975321    3.056597426429   -1.071027409003
 H    1.563664975321    1.464597426429    0.674972590997
 H   -0.762335024679   -0.851402573571   -2.075027409003
 H    0.648664975321    0.169597426429    2.556972590997
 H   -1.686335024679   -2.163402573571   -0.182027409003
 H   -0.663335024679   -1.478402573571    3.190972590997
 H   -0.588601024679    2.540209626429   -2.367727409003
 H    0.991700975321    3.208351926429   -2.799547409003
