6
0 1 
 C    0.320542679333    0.177102174515   -0.623182011568
 O   -0.330457320667   -0.121897825485    0.589817988432
 H   -0.053457320667   -1.001897825485    0.883817988432
 H    1.361542679333    0.431102174515   -0.424182011568
 H   -0.163457320667    1.052102174515   -1.059182011568
 H    0.283322679333   -0.655424825485   -1.341172011568
