16
1 1 
 C    0.025399732347    1.439542508438    0.366593030854
 C   -1.060600267653    2.393542508438    0.808593030854
 C    0.249399732347   -0.934457491562   -0.281406969146
 N   -0.493600267653    0.085542508438    0.129593030854
 N    1.536399732347   -0.766457491562   -0.509406969146
 N   -0.284600267653   -2.123457491562   -0.475406969146
 H    0.462399732347    1.828542508438   -0.553406969146
 H    0.793399732347    1.401542508438    1.143593030854
 H   -1.537600267653    1.963542508438    1.689593030854
 H   -1.806600267653    2.485542508438    0.017593030854
 H   -1.475600267653   -0.084457491562    0.291593030854
 H    1.951399732347    0.142542508438   -0.384406969146
 H    2.087399732347   -1.515457491562   -0.895406969146
 H   -1.269600267653   -2.266457491562   -0.313406969146
 H    0.275399732347   -2.893457491562   -0.801406969146
 H   -0.658887267653    3.389589508438    1.046327030854
