12
0 1 
 C   -0.740202872028   -1.337743495449   -1.589837557860
 C   -0.944202872028    0.032256504551    0.590162442140
 C   -0.283202872028   -0.413743495449   -0.507837557860
 C    1.099797127972    0.844256504551    0.648162442140
 N   -0.059202872028    0.818256504551    1.296162442140
 N    0.993797127972    0.108256504551   -0.452837557860
 H   -1.960202872028   -0.219743495449    0.867162442140
 H   -0.212202872028    1.231256504551    2.208162442140
 H   -1.294202872028   -2.154743495449   -1.141837557860
 H    0.155797127972   -1.759743495449   -2.044837557860
 H    2.007797127972    1.316256504551    1.002162442140
 H   -1.349682872028   -0.868413495449   -2.376127557860
