12
0 1 
 C    0.452144829063   -0.560691790633    0.826402719403
 C    1.891144829063   -0.180691790633    0.425402719403
 C   -0.532855170937    0.105308209367   -0.096597280597
 O   -0.902855170937    1.260308209367    0.086402719403
 N   -0.903855170937   -0.622691790633   -1.124597280597
 H    0.323144829063   -1.644691790633    0.810402719403
 H    0.251144829063   -0.203691790633    1.837402719403
 H    1.913144829063    0.889308209367    0.238402719403
 H   -1.492855170937   -0.182691790633   -1.812597280597
 H   -0.472855170937   -1.510691790633   -1.328597280597
 H    2.208414829063   -0.717724790633   -0.480657280597
 H    2.600774829063   -0.406283790633    1.235052719403
