12
0 1 
 C   -0.390659717792    0.598384485850   -2.090764379768
 C    0.653340282208    0.233384485850    1.363235620232
 C   -0.151659717792    0.146384485850   -0.681764379768
 C   -0.582659717792   -0.957615514150   -0.015764379768
 N    0.619340282208    0.872384485850    0.201235620232
 N   -0.074659717792   -0.874615514150    1.262235620232
 H    1.130340282208    0.600384485850    2.264235620232
 H   -0.482659717792   -1.345615514150    2.070235620232
 H   -1.274659717792   -1.704615514150   -0.388764379768
 H    0.577340282208    0.802384485850   -2.547764379768
 H   -0.942659717792    1.534384485850   -2.042764379768
 H   -0.959960717792   -0.100465514150   -2.721244379768
