11
0 1 
 C   -0.407632388002    0.482280959396   -0.040349358957
 C    1.090367611998    0.566280959396    0.024650641043
 C   -0.715632388002   -1.008719040604    0.019650641043
 H   -0.755632388002    0.898280959396   -0.985349358957
 H   -0.881632388002    1.001280959396    0.790650641043
 H    1.424367611998    1.355280959396   -0.641349358957
 H    1.430367611998    0.724280959396    1.048650641043
 H   -1.682632388002   -1.234719040604   -0.431349358957
 H   -0.697632388002   -1.339719040604    1.058650641043
 H    1.439197611998   -0.404929040604   -0.356229358957
 H    0.115297611998   -1.474159040604   -0.530729358957
