8
0 1 
 C    0.300415458677    0.652603537404    0.275363087694
 C   -0.297584541323   -0.653396462596   -0.280636912306
 H    1.134415458677    0.979603537404   -0.349636912306
 H   -0.457584541323    1.436603537404    0.292363087694
 H    0.640415458677    0.522603537404    1.303363087694
 H   -1.078584541323   -0.986396462596    0.402363087694
 H    0.479185458677   -1.431576462596   -0.313178912306
 H   -0.751554541323   -0.511396462596   -1.272478912306
