18
0 1 
 C    1.762484050739   -0.191032827541   -1.015731591742
 C    1.524484050739   -1.179032827541   -2.143731591742
 C    0.550484050739    0.030967172459   -0.166731591742
 C   -0.396515949261    0.984967172459   -0.562731591742
 C    0.321484050739   -0.714032827541    0.978268408258
 C   -1.521515949261    1.238967172459    0.203268408258
 C   -0.828515949261   -0.483032827541    1.753268408258
 C   -1.749515949261    0.508967172459    1.360268408258
 H    2.570484050739   -0.558032827541   -0.384731591742
 H    2.077484050739    0.761967172459   -1.441731591742
 H    0.743484050739   -0.775032827541   -2.786731591742
 H   -0.235515949261    1.550967172459   -1.469731591742
 H    1.031484050739   -1.470032827541    1.283268408258
 H   -2.234515949261    1.988967172459   -0.106731591742
 H   -1.002515949261   -1.059032827541    2.652268408258
 H   -2.631515949261    0.695967172459    1.957268408258
 H    1.258784050739   -2.186402827541   -1.790731591742
 H    2.436464050739   -1.291852827541   -2.748341591742
