11
0 1 
 C    0.673579703264   -0.109394340105   -0.074373726722
 C   -0.206420296736   -0.125394340105    1.194626273278
 C   -0.413420296736    0.217605659895   -1.124373726722
 H    1.143579703264   -1.069394340105   -0.279373726722
 H    1.414579703264    0.689605659895   -0.014373726722
 H   -0.795420296736   -1.035394340105    1.214626273278
 H    0.439579703264   -0.060394340105    2.064626273278
 H   -1.066420296736   -0.647394340105   -1.259373726722
 H    0.016579703264    0.523605659895   -2.076373726722
 H   -0.852660296736    0.750997659895    1.038686273278
 H   -0.939680296736    1.052963659895   -0.639373726722
