8
0 1 
 C    0.629911572653    0.413834918433    0.139906525099
 C   -0.632088427347   -0.418165081567   -0.139093474901
 H    1.503911572653   -0.238165081567    0.132906525099
 H    0.759911572653    1.183834918433   -0.619093474901
 H    0.565911572653    0.919834918433    1.102906525099
 H   -1.510088427347    0.202834918433    0.042906525099
 H   -0.670228427347   -1.293126081567    0.526476525099
 H   -0.623498427347   -0.723655081567   -1.195783474901
