11
0 1 
 C   -0.136064696029   -0.526920593536    0.131832790376
 C    0.190935303971   -0.090920593536   -1.299167209624
 C   -0.064064696029    0.587079406464    1.169832790376
 H   -1.139064696029   -0.954920593536    0.156832790376
 H    0.560935303971   -1.298920593536    0.438832790376
 H    1.187935303971    0.342079406464   -1.307167209624
 H   -0.884064696029    1.289079406464    1.039832790376
 H   -0.144064696029    0.148079406464    2.158832790376
 H    0.881935303971    1.121079406464    1.097832790376
 H    0.158835303971   -0.961214593536   -1.971147209624
 H   -0.512974696029    0.681013406464   -1.643597209624
