9
0 1 
 C   -0.038704092698    1.326088997387    0.682796561000
 C    0.007295907302   -0.031911002613   -0.081203439000
 O    0.263295907302   -0.099911002613   -1.314203439000
 N   -0.228704092698   -1.127911002613    0.661796561000
 H   -0.150704092698   -2.024911002613    0.211796561000
 H   -0.341704092698   -1.055911002613    1.659796561000
 H    0.953295907302    1.522088997387    1.089796561000
 H   -0.745704092698    1.251088997387    1.510796561000
 H   -0.342214092698    2.155338997387    0.026876561000
