15
0 1 
 C   -0.047431024585    0.772460811443   -1.609047760224
 C   -0.477431024585   -0.304539188557   -2.606047760224
 C    0.008568975415    0.304460811443   -0.197047760224
 C   -0.918431024585    0.431460811443    0.789952239776
 C    0.827568975415   -0.628539188557    1.578952239776
 N    1.098568975415   -0.363539188557    0.305952239776
 N   -0.380431024585   -0.168539188557    1.896952239776
 H    0.930568975415    1.161460811443   -1.894047760224
 H   -0.755431024585    1.595460811443   -1.646047760224
 H    0.337568975415   -1.023539188557   -2.715047760224
 H   -1.887431024585    0.906460811443    0.709952239776
 H    1.487568975415   -1.154539188557    2.258952239776
 H   -0.820431024585   -0.264539188557    2.805952239776
 H   -0.689028024585    0.174580811443   -3.573347760224
 H   -1.352154024585   -0.852509188557   -2.225797760224
