8
0 1 
 C    0.487000564462   -0.591937154394   -0.021038365930
 C   -0.487999435538    0.590062845606    0.021961634070
 H    0.216000564462   -1.271937154394   -0.831038365930
 H    1.503000564462   -0.226937154394   -0.181038365930
 H    0.451000564462   -1.131937154394    0.925961634070
 H   -0.191999435538    1.256062845606    0.832961634070
 H   -1.521479435538    0.240332845606    0.162005634070
 H   -0.444629435538    1.156732845606   -0.919845365930
