8
0 1 
 C    0.384198214995   -0.046489160293    0.664925458906
 C   -0.380801785005    0.047510839707   -0.667074541094
 H    0.770198214995    0.933510839707    0.950925458906
 H   -0.301801785005   -0.399489160293    1.428925458906
 H    1.200198214995   -0.768489160293    0.616925458906
 H   -1.185801785005    0.774510839707   -0.562074541094
 H    0.292488214995    0.374240839707   -1.473257541094
 H   -0.815721785005   -0.926449160293   -0.935855541094
