16
1 1 
 C    1.166817595298    0.712241179456    0.561394881404
 C    2.470817595298    0.192241179456    1.144394881404
 C   -0.888182404702   -0.220758820544   -0.414605118596
 N    0.288817595298   -0.394758820544    0.166394881404
 N   -1.333182404702    0.998241179456   -0.659605118596
 N   -1.617182404702   -1.267758820544   -0.747605118596
 H    0.672817595298    1.339241179456    1.307394881404
 H    1.399817595298    1.316241179456   -0.318605118596
 H    2.904817595298   -0.543758820544    0.466394881404
 H    2.266817595298   -0.287758820544    2.102394881404
 H    0.604817595298   -1.341758820544    0.324394881404
 H   -0.772182404702    1.795241179456   -0.414605118596
 H   -2.226182404702    1.133241179456   -1.105605118596
 H   -1.281182404702   -2.200758820544   -0.571605118596
 H   -2.511182404702   -1.140758820544   -1.193605118596
 H    3.184847595298    1.019540179456    1.269854881404
