15
0 1 
 C   -2.408043017754    0.349400487292   -0.207689546079
 C    1.217956982246   -0.327599512708   -1.090689546079
 C    1.825956982246   -0.258599512708    0.155310453921
 C   -0.152043017754   -0.131599512708   -1.204689546079
 C   -0.926043017754    0.127400487292   -0.077689546079
 C    1.058956982246    0.002400487292    1.285310453921
 C   -0.311043017754    0.198400487292    1.167310453921
 H    1.810956982246   -0.526599512708   -1.973689546079
 H    2.893956982246   -0.402599512708    0.244310453921
 H   -0.615043017754   -0.185599512708   -2.179689546079
 H    1.526956982246    0.048400487292    2.258310453921
 H   -2.909043017754   -0.082599512708    0.659310453921
 H   -2.759043017754   -0.184599512708   -1.084689546079
 H   -0.902043017754    0.402400487292    2.049310453921
 H   -2.686603017754    1.409810487292   -0.296719546079
