18
0 1 
 C    1.789613066384   -0.831988266695   -0.495707427316
 C    1.945613066384   -2.163988266695    0.236292572684
 C    0.502613066384   -0.112988266695   -0.213707427316
 C   -0.624386933616   -0.356988266695   -0.987707427316
 C    0.432613066384    0.818011733305    0.816292572684
 C   -1.815386933616    0.312011733305   -0.731707427316
 C   -0.757386933616    1.488011733305    1.074292572684
 C   -1.882386933616    1.239011733305    0.296292572684
 H    2.610613066384   -0.163988266695   -0.227707427316
 H    1.871613066384   -1.039988266695   -1.559707427316
 H    1.390613066384   -2.910988266695   -0.324707427316
 H   -0.578386933616   -1.073988266695   -1.794707427316
 H    1.301613066384    1.026011733305    1.422292572684
 H   -2.681386933616    0.082011733305   -1.323707427316
 H   -0.803386933616    2.209011733305    1.876292572684
 H   -2.807386933616    1.756011733305    0.510292572684
 H    1.554060066384   -2.111380266695    1.262902572684
 H    3.013065066384   -2.429401266695    0.226142572684
