12
0 1 
 C    0.367823789369   -0.578439771542   -0.817021711491
 C    1.884823789369   -0.407439771542   -0.639021711491
 C   -0.461176210631    0.136560228458    0.223978288509
 O    0.026823789369    0.518560228458    1.287978288509
 N   -1.744176210631    0.305560228458   -0.077021711491
 H    0.069823789369   -0.229439771542   -1.804021711491
 H    0.116823789369   -1.638439771542   -0.752021711491
 H    2.169823789369   -0.651439771542    0.386978288509
 H   -2.350176210631    0.728560228458    0.603978288509
 H   -2.122176210631   -0.061439771542   -0.936021711491
 H    2.211528789369    0.612570228458   -0.889696711491
 H    2.382091789369   -1.123159771542   -1.310189711491
