18
0 1 
 C    1.380695468759   -1.140643224589   -1.003830982135
 C    0.705695468759   -2.467643224589   -1.332830982135
 C    0.471695468759   -0.197643224589   -0.250830982135
 C   -0.402304531241    0.623356775411   -0.959830982135
 C    0.497695468759   -0.145643224589    1.162169017865
 C   -1.246304531241    1.512356775411   -0.281830982135
 C   -0.355304531241    0.730356775411    1.829169017865
 C   -1.231304531241    1.539356775411    1.107169017865
 H    2.269695468759   -1.323643224589   -0.407830982135
 H    1.697695468759   -0.664643224589   -1.933830982135
 H   -0.165304531241   -2.254643224589   -1.955830982135
 H   -0.431304531241    0.574356775411   -2.037830982135
 H    1.182695468759   -0.761643224589    1.727169017865
 H   -1.929304531241    2.148356775411   -0.828830982135
 H   -0.341304531241    0.780356775411    2.910169017865
 H   -1.893304531241    2.213356775411    1.635169017865
 H    0.380085468759   -2.977589224589   -0.414170982135
 H    1.366867468759   -3.138229224589   -1.901310982135
