15
0 1 
 C   -1.438297361362    1.184731934919    1.563812388251
 C   -0.289297361362   -0.874268065081   -1.412187611749
 C   -1.107297361362   -0.166268065081   -0.515187611749
 C    1.099702638638   -0.927268065081   -1.174187611749
 C   -0.550297361362    0.496731934919    0.584812388251
 C    1.644702638638   -0.272268065081   -0.067187611749
 C    0.823702638638    0.415731934919    0.820812388251
 H   -0.719297361362   -1.381268065081   -2.266187611749
 H   -2.172297361362   -0.141268065081   -0.686187611749
 H    1.743702638638   -1.471268065081   -1.852187611749
 H    2.711702638638   -0.317268065081    0.110812388251
 H   -2.088297361362    1.852731934919    0.996812388251
 H   -0.853297361362    1.792731934919    2.256812388251
 H    1.256702638638    0.896731934919    1.686812388251
 H   -2.056897361362    0.470081934919    2.126502388251
