9
0 1 
 C    1.244588316632    0.372676908463   -0.648107151414
 C   -0.032411683368   -0.072323091537    0.035892848586
 O    0.009588316632   -0.787323091537    1.033892848586
 N   -1.155411683368    0.450676908463   -0.398107151414
 H    1.042588316632    0.693676908463   -1.671107151414
 H    1.930588316632   -0.472323091537   -0.686107151414
 H   -2.016411683368    0.177676908463    0.051892848586
 H   -1.165411683368    1.052676908463   -1.208107151414
 H    1.676988316632    1.205556908463   -0.074230151414
