14
0 1 
 C   -0.313060917467   -0.000389892990   -0.213183552289
 C    0.872939082533    0.627610107010   -0.988183552289
 C   -0.022060917467   -1.485389892990    0.136816447711
 C   -0.576060917467    0.859610107010    1.036816447711
 H   -1.194060917467    0.010610107010   -0.845183552289
 H    1.757939082533    0.611610107010   -0.348183552289
 H    0.879939082533   -1.561389892990    0.747816447711
 H   -0.856060917467   -1.915389892990    0.689816447711
 H    0.089939082533   -2.092389892990   -0.761183552289
 H    0.305939082533    0.866610107010    1.678816447711
 H   -0.804060917467    1.884610107010    0.746816447711
 H    0.635819082533    1.654395107010   -1.303596552289
 H    1.081349082533    0.027147107010   -1.885963552289
 H   -1.441380917467    0.497036107010    1.611071447711
