18
0 1 
 C    1.156966691354    1.063378500520    1.312229326321
 C    2.610966691354    0.620378500520    1.135229326321
 C    0.190966691354    0.353378500520    0.408229326321
 C   -0.239033308646   -0.947621499480    0.694229326321
 C   -0.283033308646    0.988378500520   -0.740770673679
 C   -1.138033308646   -1.604621499480   -0.164770673679
 C   -1.176033308646    0.332378500520   -1.595770673679
 C   -1.601033308646   -0.960621499480   -1.299770673679
 H    0.855966691354    0.886378500520    2.345229326321
 H    1.101966691354    2.136378500520    1.129229326321
 H    2.676966691354   -0.451621499480    1.320229326321
 H    0.114966691354   -1.450621499480    1.583229326321
 H    0.041966691354    1.991378500520   -0.981770673679
 H   -1.477033308646   -2.604621499480    0.067229326321
 H   -1.528033308646    0.827378500520   -2.488770673679
 H   -2.294033308646   -1.465621499480   -1.956770673679
 H    3.237476691354    1.160088500520    1.860629326321
 H    2.964426691354    0.816108500520    0.112119326321
