8
0 1 
 C   -0.142026442359    0.649415933070   -0.363518079898
 C    0.146973557641   -0.651584066930    0.357481920102
 H   -0.322026442359    0.461415933070   -1.422518079898
 H   -1.028026442359    1.115415933070    0.068481920102
 H    0.703973557641    1.329415933070   -0.256518079898
 H   -0.736026442359   -1.291584066930    0.315481920102
 H    0.303973557641   -0.396584066930    1.405481920102
 H    1.019227757641   -1.192264066930   -0.038538079898
