16
0 1 
 C    2.264179528243    1.078128458471    1.515331007094
 C    1.316179528243   -0.153871541529   -0.472668992906
 C    1.103179528243    0.536128458471    0.718331007094
 C    0.245179528243   -0.670871541529   -1.195668992906
 C   -0.197820471757    0.676128458471    1.191331007094
 C   -1.050820471757   -0.511871541529   -0.715668992906
 C   -1.273820471757    0.163128458471    0.479331007094
 O   -2.107820471757   -1.009871541529   -1.406668992906
 H    2.326179528243   -0.292871541529   -0.835668992906
 H    0.401179528243   -1.195871541529   -2.124668992906
 H    2.012179528243    2.076128458471    1.874331007094
 H    3.141179528243    1.170128458471    0.873331007094
 H   -0.376820471757    1.203128458471    2.117331007094
 H   -2.276820471757    0.283128458471    0.863331007094
 H   -2.926820471757   -0.941871541529   -0.914668992906
 H    2.501497528243    0.426767458471    2.369386007094
