8
0 1 
 C    0.346195989752    0.173383067040   -0.663569566864
 C   -0.344804010248   -0.180616932960    0.661430433136
 H   -0.404804010248    0.333383067040   -1.434569566864
 H    0.904195989752    1.097383067040   -0.557569566864
 H    1.016195989752   -0.631616932960   -0.963569566864
 H   -1.025804010248    0.631383067040    0.906430433136
 H   -0.918175010248   -1.118271932960    0.616164333136
 H    0.411816989752   -0.226127932960    1.458584233136
