8
0 1 
 C    0.341364368960   -0.356505153925    0.570998690939
 C   -0.339635631040    0.358494846075   -0.577001309061
 H    1.353364368960    0.007494846075    0.714998690939
 H   -0.214635631040   -0.186505153925    1.492998690939
 H    0.385364368960   -1.428505153925    0.374998690939
 H   -0.449635631040    1.409494846075   -0.315001309061
 H    0.243824368960    0.261134846075   -1.504421309061
 H   -1.338865631040   -0.086805153925   -0.692101309061
