11
0 1 
 C   -0.330643651149    0.376710029269   -0.315293916744
 C    0.179356348851   -0.962289970731   -0.819293916744
 C    0.133356348851    0.621710029269    1.108706083256
 H    0.025356348851    1.179710029269   -0.961293916744
 H   -1.412643651149    0.316710029269   -0.365293916744
 H   -0.236643651149   -1.744289970731   -0.182293916744
 H   -0.273643651149   -0.182289970731    1.703706083256
 H    1.210356348851    0.588710029269    1.165706083256
 H    1.276396348851   -0.997164970731   -0.746511916744
 H   -0.166133651149   -1.166407970731   -1.843488916744
 H   -0.209543651149    1.574828029269    1.537639983256
