8
0 1 
 C   -0.202508881862    0.579703156178   -0.451508648942
 C    0.209491118138   -0.580296843822    0.446491351058
 H   -0.077508881862    0.331703156178   -1.500508648942
 H   -1.243508881862    0.824703156178   -0.260508648942
 H    0.407491118138    1.453703156178   -0.223508648942
 H   -0.463508881862   -1.417296843822    0.260491351058
 H    0.047491118138   -0.265296843822    1.475491351058
 H    1.246408118138   -0.920446843822    0.308283351058
