15
0 1 
 C    2.284945346135   -0.763776289062   -0.485526873647
 C   -1.514054653865   -0.434776289062   -0.574526873647
 C   -1.736054653865    0.567223710938    0.377473126353
 C   -0.215054653865   -0.851776289062   -0.853526873647
 C    0.880945346135   -0.270776289062   -0.207526873647
 C   -0.645054653865    1.143223710938    1.041473126353
 C    0.654945346135    0.720223710938    0.752473126353
 H   -2.341054653865   -0.893776289062   -1.089526873647
 H   -2.744054653865    0.882223710938    0.597473126353
 H   -0.059054653865   -1.635776289062   -1.576526873647
 H   -0.816054653865    1.916223710938    1.776473126353
 H    2.239945346135   -1.850776289062   -0.542526873647
 H    2.926945346135   -0.519776289062    0.362473126353
 H    1.488945346135    1.167223710938    1.274473126353
 H    2.750011346135   -0.370149289062   -1.401366873647
