11
0 1 
 C   -0.335788891986   -0.256187979835    0.489744630187
 C    0.942211108014   -0.745187979835   -0.124255369813
 C   -0.624788891986    0.985812020165   -0.307255369813
 H   -0.319788891986   -0.038187979835    1.535744630187
 H   -1.025788891986   -0.971187979835    0.157744630187
 H    1.768211108014   -0.135187979835    0.198744630187
 H    1.109211108014   -1.802187979835    0.066744630187
 H   -1.687788891986    1.170812020165   -0.212255369813
 H    0.762171108014   -0.609427979835   -1.200895369813
 H   -0.297068891986    0.704692020165   -1.318973369813
 H   -0.090468891986    1.865993020165    0.079764630187
