15
0 1 
 C    2.210232361246    0.879595872487    0.584478708623
 C   -0.667767638754   -1.525404127513   -0.033521291377
 C    0.599232361246   -1.018404127513    0.275478708623
 C   -1.675767638754   -0.677404127513   -0.428521291377
 C    0.854232361246    0.344595872487    0.210478708623
 C   -1.430767638754    0.690595872487   -0.509521291377
 C   -0.169767638754    1.197595872487   -0.171521291377
 H   -0.848767638754   -2.584404127513    0.040478708623
 H    1.379232361246   -1.699404127513    0.583478708623
 H   -2.652767638754   -1.069404127513   -0.672521291377
 H   -2.223767638754    1.355595872487   -0.821521291377
 H    2.304232361246    1.918595872487    0.274478708623
 H    2.957232361246    0.304595872487    0.039478708623
 H    0.020232361246    2.253595872487   -0.244521291377
 H    2.402732361246    0.816635872487    1.665668708623
