12
0 1 
 C    0.233275490422    0.458304370138   -1.041491806931
 C   -0.900724509578   -0.232695629862   -1.779491806931
 C    0.444275490422   -1.194695629862    1.169508193069
 S    0.098275490422    0.504304370138    0.772508193069
 H    1.168275490422   -0.038695629862   -1.300491806931
 H    0.307275490422    1.486304370138   -1.396491806931
 H   -0.968724509578   -1.259695629862   -1.420491806931
 H   -0.642724509578   -0.272695629862   -2.838491806931
 H    1.402275490422   -1.487695629862    0.738508193069
 H    0.495275490422   -1.297695629862    2.252508193069
 H   -0.341724509578   -1.842695629862    0.781508193069
 H   -1.880314509578    0.253154370138   -1.659641806931
