15
0 1 
 C   -1.205209939087   -1.069398746516    1.854885032152
 C    0.848790060913    0.017601253484    0.882885032152
 C   -0.470209939087   -0.391398746516    0.722885032152
 C    1.545790060913    0.599601253484   -0.186114967848
 C    0.922790060913    0.785601253484   -1.412114967848
 C   -1.092209939087   -0.193398746516   -0.512114967848
 C   -0.402209939087    0.402601253484   -1.579114967848
 H    1.356790060913   -0.139398746516    1.823885032152
 H    2.576790060913    0.899601253484   -0.059114967848
 H   -0.491209939087   -1.661398746516    2.428885032152
 H   -1.921209939087   -1.776398746516    1.432885032152
 H    1.460790060913    1.232601253484   -2.237114967848
 H   -2.109209939087   -0.515398746516   -0.661114967848
 H   -0.890209939087    0.543601253484   -2.533114967848
 H   -1.739149939087   -0.383625746516    2.529144032152
