12
0 1 
 C    0.819876824603   -0.592768577273    0.534163904131
 C    1.230876824603   -1.297768577273   -0.728836095869
 C   -0.416123175397    1.352231422727   -0.821836095869
 S   -0.781123175397    0.230231422727    0.514163904131
 H    0.806876824603   -1.345768577273    1.314163904131
 H    1.572876824603    0.152231422727    0.796163904131
 H    1.151876824603   -0.645768577273   -1.591836095869
 H    0.558876824603   -2.130768577273   -0.864836095869
 H   -1.034123175397    1.090231422727   -1.675836095869
 H   -0.632123175397    2.339231422727   -0.430836095869
 H    0.637876824603    1.340231422727   -1.093836095869
 H    2.254816824603   -1.693928577273   -0.661006095869
