8
0 1 
 C   -0.121424743038   -0.713319791138   -0.238645677240
 C    0.125575256962    0.717680208862    0.237354322760
 H    0.703575256962   -1.378319791138    0.006354322760
 H   -1.034424743038   -1.093319791138    0.220354322760
 H   -0.249424743038   -0.749319791138   -1.315645677240
 H   -0.034424743038    0.734680208862    1.313354322760
 H    1.158589256962    1.029520208862    0.023724322760
 H   -0.593309743038    1.404840208862   -0.232765677240
