6
0 1 
 C    0.732929047262    0.027615279473    0.032102942547
 O   -0.690070952738   -0.001384720527   -0.080897057453
 H   -1.043070952738   -0.421384720527    0.727102942547
 H    1.002929047262    0.280615279473    1.058102942547
 H    1.134539047262   -0.960960720527   -0.235157057453
 H    1.130669047262    0.794896279473   -0.648398057453
