11
0 1 
 C   -0.050774069282    0.575663461349    0.025357749273
 C   -0.310774069282   -0.224336538651   -1.244642250727
 C    0.355225930718   -0.309336538651    1.214357749273
 H    0.725225930718    1.308663461349   -0.171642250727
 H   -0.960774069282    1.114663461349    0.285357749273
 H    0.568225930718   -0.842336538651   -1.441642250727
 H   -0.332774069282   -1.143336538651    1.332357749273
 H    1.346225930718   -0.722336538651    1.023357749273
 H   -0.469794069282    0.463753461349   -2.087992250727
 H   -1.165754069282   -0.892286538651   -1.063392250727
 H    0.364695930718    0.213243461349    2.182257749273
