9
0 1 
 C   -0.751030894104    0.109158945487    0.433168384341
 C   -1.470030894104    0.394158945487   -0.893831615659
 S    1.007969105896   -0.242841054513    0.183168384341
 H   -0.830030894104    0.977158945487    1.090168384341
 H   -1.209030894104   -0.756841054513    0.921168384341
 H   -1.352030894104   -0.498841054513   -1.506831615659
 H    1.447969105896    0.179158945487    1.377168384341
 H   -1.032783894104    1.261868945487   -1.409481615659
 H   -2.554931894104    0.548423945487   -0.797956615659
