9
0 1 
 C    0.270266073200    0.790342755103    1.174573135324
 C   -0.072733926800   -0.006657244897   -0.052426864676
 O   -0.938733926800    0.361342755103   -0.839426864676
 N    0.685266073200   -1.081657244897   -0.270426864676
 H    1.039266073200    1.513342755103    0.910573135324
 H    0.677266073200    0.116342755103    1.929573135324
 H    0.502266073200   -1.640657244897   -1.090426864676
 H    1.409266073200   -1.343657244897    0.382573135324
 H   -0.602983926800    1.317572755103    1.586223135324
