8
0 1 
 C   -0.244609313254   -0.612646184240   -0.342561258591
 C    0.238390686746    0.622353815760    0.340438741409
 H   -0.665609313254   -0.381646184240   -1.317561258591
 H    0.576390686746   -1.318646184240   -0.469561258591
 H   -1.009609313254   -1.088646184240    0.269438741409
 H    0.766390686746    0.311353815760    1.244438741409
 H   -0.571339313254    1.301843815760    0.644798741409
 H    0.977820686746    1.060153815760   -0.346281258591
