8
0 1 
 C    0.702236607785    0.177900274855   -0.240241606430
 C   -0.706763392215   -0.179099725145    0.238758393570
 H    0.694236607785    0.405900274855   -1.307241606430
 H    1.091236607785    1.045900274855    0.288758393570
 H    1.393236607785   -0.647099725145   -0.057241606430
 H   -0.643763392215   -0.544099725145    1.265758393570
 H   -1.145833392215   -0.969709725145   -0.387461606430
 H   -1.335213392215    0.723390274855    0.215088393570
