18
0 1 
 C    0.159505476527    0.977110502919   -1.782816528623
 C    1.618505476527    1.375110502919   -1.952816528623
 C   -0.107494523473    0.245110502919   -0.504816528623
 C   -0.068494523473   -1.143889497081   -0.470816528623
 C   -0.368494523473    0.949110502919    0.665183471377
 C   -0.311494523473   -1.823889497081    0.717183471377
 C   -0.608494523473    0.273110502919    1.854183471377
 C   -0.579494523473   -1.113889497081    1.880183471377
 H   -0.475494523473    1.864110502919   -1.840816528623
 H   -0.119494523473    0.317110502919   -2.594816528623
 H    2.215505476527    0.486110502919   -1.791816528623
 H    0.144505476527   -1.704889497081   -1.370816528623
 H   -0.400494523473    2.028110502919    0.651183471377
 H   -0.293494523473   -2.905889497081    0.735183471377
 H   -0.819494523473    0.827110502919    2.756183471377
 H   -0.772494523473   -1.642889497081    2.804183471377
 H    1.888295476527    2.126893502919   -1.196486528623
 H    1.799355476527    1.725192502919   -2.979816528623
