6
0 1 
 C    0.178949279779   -0.476042687681    0.528279235479
 O   -0.139050720221    0.422957312319   -0.535720764521
 H   -0.744050720221    1.113957312319   -0.168720764521
 H    0.914949279779   -1.191042687681    0.159279235479
 H    0.619377279779    0.067557312319    1.377119235479
 H   -0.714158420221   -1.034952687681    0.844469235479
