16
0 1 
 C   -0.300422508269    1.787271608106   -2.304775273326
 C   -0.180422508269   -0.517728391894   -1.299775273326
 C   -0.170422508269    0.864271608106   -1.124775273326
 C   -0.023422508269   -1.374728391894   -0.207775273326
 C   -0.003422508269    1.382271608106    0.163224726674
 C    0.149577491731   -0.847728391894    1.072224726674
 C    0.157577491731    0.534271608106    1.261224726674
 O    0.321577491731   -1.681728391894    2.137224726674
 H   -0.306422508269   -0.924728391894   -2.286775273326
 H   -0.062422508269   -2.443728391894   -0.330775273326
 H   -0.989422508269    2.579271608106   -2.028775273326
 H   -0.716422508269    1.251271608106   -3.158775273326
 H    0.004577491731    2.455271608106    0.312224726674
 H    0.290577491731    0.948271608106    2.250224726674
 H    0.436577491731   -1.195728391894    2.960224726674
 H    0.656217491731    2.255841608106   -2.579135273326
