6
0 1 
 C   -0.670942299675    0.263072479215    0.135312734977
 O    0.618057700325   -0.301927520785   -0.109687265023
 H    1.189057700325    0.415072479215   -0.419687265023
 H   -0.984942299675    0.812072479215   -0.753687265023
 H   -1.400302299675   -0.537867520785    0.326422734977
 H   -0.624042299675    0.970172479215    0.976622734977
