11
0 1 
 C    0.320472291109   -0.440257142559    0.161778331418
 C    0.065472291109    0.780742857441    1.039778331418
 C   -0.356527708891   -0.362257142559   -1.193221668582
 H    1.392472291109   -0.603257142559    0.039778331418
 H   -0.115527708891   -1.286257142559    0.676778331418
 H   -1.013527708891    0.843742857441    1.206778331418
 H   -1.433527708891   -0.283257142559   -1.062221668582
 H   -0.011527708891    0.522742857441   -1.727221668582
 H    0.426052291109    1.693814657441    0.543508331418
 H    0.520802291109    0.616359857441    2.027528331418
 H   -0.115477708891   -1.244660142559   -1.804171668582
