7
-1 1 
 C   -0.600487818412   -1.112879964372   -0.684325890774
 C    0.027512181588    0.071120035628    0.039674109226
 O    0.848512181588    0.775120035628   -0.588325890774
 O   -0.274487818412    0.272120035628    1.235674109226
 H   -1.128487818412   -0.769879964372   -1.573325890774
 H   -1.332487818412   -1.609879964372   -0.044325890774
 H    0.173115181588   -1.836642964372   -0.980475890774
