11
0 1 
 C    0.164883450482    0.376735706693   -0.416384928998
 C   -1.273116549518   -0.007264293307   -0.143384928998
 C    1.121883450482   -0.341264293307    0.533615071002
 H    0.328883450482    0.109735706693   -1.411384928998
 H    0.288883450482    1.457735706693   -0.323384928998
 H   -1.534116549518    0.366735706693    0.843615071002
 H   -1.367116549518   -1.094264293307   -0.139384928998
 H    0.999883450482   -1.420264293307    0.397615071002
 H    2.150883450482   -0.087264293307    0.258615071002
 H   -1.960176549518    0.404540706693   -0.897284928998
 H    0.930343450482   -0.072812293307    1.583015071002
