8
0 1 
 C   -0.555193019910   -0.388727412555   -0.334075362397
 C    0.562806980090    0.388272587445    0.334924637603
 H   -0.278193019910   -1.435727412555   -0.447075362397
 H   -1.445193019910   -0.351727412555    0.294924637603
 H   -0.795193019910    0.043272587445   -1.306075362397
 H    0.804806980090   -0.079727412555    1.283924637603
 H    1.428336980090    0.418902587445   -0.343250362397
 H    0.194776980090    1.410422587445    0.507439637603
