13
1 1 
 C    0.461484551339   -1.773158636587    0.804929896757
 C   -0.113515448661    0.439841363413   -0.182070103243
 N    0.764484551339   -0.411158636587    0.332929896757
 N   -1.361515448661    0.080841363413   -0.408070103243
 N    0.294484551339    1.642841363413   -0.530070103243
 H    1.712484551339   -0.088158636587    0.472929896757
 H   -1.669515448661   -0.862158636587   -0.194070103243
 H   -2.018515448661    0.751841363413   -0.791070103243
 H    1.264484551339    1.905841363413   -0.414070103243
 H   -0.358515448661    2.312841363413   -0.923070103243
 H   -0.590515448661   -1.822158636587    1.084929896757
 H    1.073484551339   -1.983158636587    1.680929896757
 H    0.647084551339   -2.575978636587    0.076209896757
