6
0 1 
 C    0.504185611570   -0.364967637745   -0.387104134458
 O   -0.495814388430    0.295032362255    0.386895865542
 H   -0.440814388430    1.256032362255    0.197895865542
 H    1.054185611570   -1.052967637745    0.256895865542
 H    0.043545611570   -0.926467637745   -1.213257134458
 H    1.208765611570    0.386632362255   -0.772670134458
