9
0 1 
 C   -0.556630273719    0.979930734271   -0.912175165360
 C    0.049369726281   -0.005069265729    0.064824834640
 O    0.743369726281    0.358930734271    1.035824834640
 N   -0.214630273719   -1.259069265729   -0.174175165360
 H    0.158369726281   -1.944069265729    0.464824834640
 H   -0.781630273719   -1.513069265729   -0.960175165360
 H   -0.920630273719    1.848930734271   -0.366175165360
 H   -1.415630273719    0.517930734271   -1.400175165360
 H    0.183716726281    1.280226734271   -1.668285165360
