8
0 1 
 C   -0.328385164798   -0.570029729416   -0.397698772775
 C    0.326614835202    0.567970270584    0.402301227225
 H   -1.238385164798   -0.896029729416    0.107301227225
 H   -0.580385164798   -0.223029729416   -1.400698772775
 H    0.352614835202   -1.417029729416   -0.493698772775
 H    1.265614835202    0.815970270584   -0.091698772775
 H    0.533214835202    0.281020270584    1.443923227225
 H   -0.311595164798    1.463620270584    0.380071227225
