8
0 1 
 C   -0.575847279008   -0.462500793508   -0.219259037544
 C    0.577152720992    0.464499206492    0.213740962456
 H   -0.774847279008   -0.356500793508   -1.286259037544
 H   -0.320847279008   -1.501500793508   -0.012259037544
 H   -1.482847279008   -0.237500793508    0.343740962456
 H    0.627152720992    0.436499206492    1.303740962456
 H    0.391412720992    1.504349206492   -0.093195037544
 H    1.544432720992    0.130859206492   -0.190066037544
