12
0 1 
 C    0.366473287708   -1.765711690355    1.273532068282
 C   -0.547526712292    0.612288309645    0.762532068282
 C    0.104473287708   -0.540711690355    0.454532068282
 C    0.113473287708    0.737288309645   -1.334467931718
 N   -0.521526712292    1.395288309645   -0.369467931718
 N    0.510473287708   -0.438711690355   -0.860467931718
 H   -0.997526712292    0.887288309645    1.698532068282
 H   -0.932526712292    2.318288309645   -0.473467931718
 H    0.289473287708   -1.529711690355    2.334532068282
 H    1.390473287708   -2.086711690355    1.078532068282
 H    0.281473287708    1.104288309645   -2.341467931718
 H   -0.317066712292   -2.591441690355    1.026678068282
