11
0 1 
 C   -0.510342698392    0.151314849440    0.028611322452
 C   -0.144342698392   -1.341685150560   -0.202388677548
 C    0.630657301608    1.199314849440    0.171611322452
 H   -1.134342698392    0.423314849440   -0.825388677548
 H   -1.124342698392    0.174314849440    0.928611322452
 H    0.336657301608   -1.735685150560    0.693611322452
 H    1.141657301608    1.316314849440   -0.783388677548
 H    0.538467301608   -1.430685150560   -1.060208677548
 H   -1.065142698392   -1.934295150560   -0.307008677548
 H    0.195957301608    2.164214849440    0.471631322452
 H    1.397187301608    0.916004849440    0.907931322452
