10
-1 1 
 C   -0.955551218913   -0.117058171323    0.526913258318
 C   -1.395551218913    1.356941828677    0.403913258318
 C    0.414448781087   -0.371058171323   -0.122086741682
 O    1.431448781087    0.163941828677    0.376913258318
 O    0.463448781087   -1.072058171323   -1.161086741682
 H   -0.896551218913   -0.340058171323    1.589913258318
 H   -1.703551218913   -0.769058171323    0.071913258318
 H   -0.611551218913    1.990941828677    0.820913258318
 H   -2.332431218913    1.474981828677    0.968123258318
 H   -1.469911218913    1.710701828677   -0.634986741682
