18
0 1 
 C    0.005300751525    1.167049870862   -1.697700825599
 C   -1.329699248475    0.970049870862   -2.406700825599
 C    0.150300751525    0.350049870862   -0.435700825599
 C    0.212300751525   -1.033950129138   -0.464700825599
 C    0.210300751525    0.976049870862    0.805299174401
 C    0.316300751525   -1.765950129138    0.722299174401
 C    0.306300751525    0.242049870862    1.988299174401
 C    0.344300751525   -1.125950129138    1.955299174401
 H    0.810300751525    0.915049870862   -2.389700825599
 H    0.119300751525    2.222049870862   -1.439700825599
 H   -2.090699248475    0.785049870862   -1.656700825599
 H    0.153300751525   -1.563950129138   -1.396700825599
 H    0.184300751525    2.054049870862    0.862299174401
 H    0.370300751525   -2.837950129138    0.688299174401
 H    0.353300751525    0.752049870862    2.937299174401
 H    0.439300751525   -1.695950129138    2.867299174401
 H   -1.277719248475    0.108979870862   -3.089231825599
 H   -1.626489248475    1.887279870862   -2.936427825599
