10
-1 1 
 C   -0.339635874338    0.428777419850    0.926991557352
 C   -1.434635874338    1.331777419850    0.365991557352
 C    0.393364125662   -0.374222580150   -0.140008442648
 O   -0.093635874338   -0.471222580150   -1.290008442648
 O    1.472364125662   -0.915222580150    0.187991557352
 H    0.385364125662    1.065777419850    1.440991557352
 H   -0.747635874338   -0.249222580150    1.669991557352
 H   -2.209635874338    0.729777419850   -0.106008442648
 H   -0.989635874338    1.981777419850   -0.389008442648
 H   -1.877643874338    1.968960419850    1.145569557352
