11
0 1 
 C   -0.546159723004   -0.088180346956   -0.145235503846
 C   -0.079159723004    1.127819653044    0.673764496154
 C    0.588840276996   -1.045180346956   -0.531235503846
 H   -1.295159723004   -0.638180346956    0.424764496154
 H   -1.018159723004    0.280819653044   -1.057235503846
 H    0.634840276996    1.693819653044    0.074764496154
 H    1.030840276996   -1.500180346956    0.322764496154
 H    0.414116276996    0.802482653044    1.601574496154
 H   -0.910415723004    1.817188653044    0.883014496154
 H    0.172914276996   -1.852524346956   -1.151885503846
 H    1.405375276996   -0.537449346956   -1.065535503846
