11
0 1 
 C    0.242269448659    0.078974505556   -0.573701625194
 C   -1.194730551341    0.256974505556   -0.152701625194
 C    0.973269448659   -0.328025494444    0.675298374806
 H    0.634269448659    1.036974505556   -0.919701625194
 H    0.336269448659   -0.668025494444   -1.361701625194
 H   -1.661730551341    1.054974505556   -0.728701625194
 H   -1.733730551341   -0.682025494444   -0.278701625194
 H    2.014269448659   -0.066025494444    0.677298374806
 H    0.870269448659   -1.404025494444    0.794298374806
 H   -1.131750551341    0.494654505556    0.919468374806
 H    0.424372448659    0.139154505556    1.506238374806
