12
0 1 
 C   -1.066314017717   -0.016265050144   -0.226691110288
 C   -0.960314017717   -0.381265050144   -1.708691110288
 C    0.263685982283    0.140734949856    0.483308889712
 O    0.416685982283    1.009734949856    1.351308889712
 N    1.236685982283   -0.698265050144    0.136308889712
 H   -1.612314017717    0.923734949856   -0.141691110288
 H   -1.625314017717   -0.787265050144    0.304308889712
 H   -0.378314017717   -1.293265050144   -1.845691110288
 H   -0.452314017717    0.431734949856   -2.230691110288
 H    2.138685982283   -0.597265050144    0.578308889712
 H    1.078685982283   -1.414265050144   -0.558691110288
 H   -1.954124017717   -0.529081050144   -2.156441110288
