8
0 1 
 C   -0.558979570798    0.518742964400   -0.017647901547
 C    0.566020429202   -0.520257035600    0.020352098453
 H   -0.457979570798    1.199742964400    0.825352098453
 H   -0.504979570798    1.096742964400   -0.936647901547
 H   -1.531979570798    0.030742964400    0.024352098453
 H    0.429020429202   -1.204257035600   -0.817647901547
 H    0.436075559202   -1.071797035600    0.963174098453
 H    1.546008429202   -0.033147035600   -0.090780901547
