8
0 1 
 C    0.690859689428    0.199915916768    0.243354590158
 C   -0.692140310572   -0.199084083232   -0.250645409842
 H    1.169859689428    0.853915916768   -0.486645409842
 H    0.614859689428    0.715915916768    1.201354590158
 H    1.306859689428   -0.688084083232    0.373354590158
 H   -1.168140310572   -0.769084083232    0.548354590158
 H   -0.610450310572   -0.829354083232   -1.148466409842
 H   -1.297740310572    0.706785916768   -0.401141409842
