19
0 1 
 C    0.812635838506   -0.073401114891    2.388381281736
 C   -0.308364161494   -0.470401114891    3.356381281736
 C    0.413635838506   -0.005401114891    0.930381281736
 C   -0.056364161494    1.183598885109    0.374381281736
 C    0.528635838506   -1.128401114891    0.112381281736
 C   -0.417364161494    1.247598885109   -0.968618718264
 C    0.172635838506   -1.072401114891   -1.231618718264
 C   -0.303364161494    0.116598885109   -1.770618718264
 O   -0.656364161494    0.170598885109   -3.084618718264
 H    1.219635838506    0.891598885109    2.690381281736
 H    1.619635838506   -0.794401114891    2.496381281736
 H    0.130635838506   -0.637401114891    4.340381281736
 H   -0.142364161494    2.067598885109    0.991381281736
 H    0.893635838506   -2.055401114891    0.531381281736
 H   -0.787364161494    2.173598885109   -1.385618718264
 H    0.268635838506   -1.938401114891   -1.866618718264
 H   -0.966364161494    1.047598885109   -3.332618718264
 H   -0.802795161494   -1.395001114891    3.023737281736
 H   -1.042898161494    0.340348885109    3.471061281736
