8
0 1 
 C   -0.021813860008    0.735055343763    0.262479326836
 C    0.025186139992   -0.734944656237   -0.264520673164
 H    0.222186139992    1.429055343763   -0.541520673164
 H   -1.022813860008    0.960055343763    0.633479326836
 H    0.693186139992    0.861055343763    1.076479326836
 H   -0.294813860008   -1.394944656237    0.541479326836
 H    1.045406139992   -0.985454656237   -0.590720673164
 H   -0.683303860008   -0.871084656237   -1.094890673164
