8
0 1 
 C    0.177387305719    0.732472652043    0.071908454213
 C   -0.176612694281   -0.734527347957   -0.068091545787
 H    1.236387305719    0.861472652043    0.286908454213
 H   -0.048612694281    1.249472652043   -0.861091545787
 H   -0.413612694281    1.181472652043    0.867908454213
 H    0.365387305719   -1.154527347957   -0.913091545787
 H    0.102780305719   -1.272483347957    0.849808454213
 H   -1.251552694281   -0.840942347957   -0.275889545787
