8
0 1 
 C   -0.208847580883    0.730287697501    0.056799217116
 C    0.210152419117   -0.733712302499   -0.051200782884
 H    0.491152419117    1.290287697501    0.674799217116
 H   -0.195847580883    1.172287697501   -0.940200782884
 H   -1.220847580883    0.812287697501    0.456799217116
 H    1.285152419117   -0.793712302499   -0.225200782884
 H   -0.308847580883   -1.171712302499   -0.902200782884
 H   -0.066298580883   -1.268662302499    0.869344317116
