8
0 1 
 C    0.659464674870   -0.273839809772   -0.273106768897
 C   -0.660535325130    0.279160190228    0.271893231103
 H    1.487464674870    0.391160190228   -0.036106768897
 H    0.856464674870   -1.244839809772    0.182893231103
 H    0.612464674870   -0.413839809772   -1.351106768897
 H   -1.454535325130   -0.431839809772    0.050893231103
 H   -0.896085325130    1.246250190228   -0.196356768897
 H   -0.593025325130    0.389760190228    1.364233231103
