16
0 1 
 C    2.667287221904   -0.055065514166   -1.221684635419
 C    1.011287221904    0.774934485834    0.487315364581
 C    1.302287221904   -0.083065514166   -0.566684635419
 C   -0.234712778096    0.826934485834    1.078315364581
 C    0.280287221904   -0.856065514166   -1.090684635419
 C   -1.234712778096    0.035934485834    0.581315364581
 C   -0.992712778096   -0.798065514166   -0.511684635419
 O   -2.473712778096    0.145934485834    1.157315364581
 H    1.799287221904    1.404934485834    0.876315364581
 H   -0.431712778096    1.487934485834    1.909315364581
 H    3.096287221904    0.928934485834   -1.031684635419
 H    2.528287221904   -0.129065514166   -2.297684635419
 H    0.464287221904   -1.505065514166   -1.935684635419
 H   -1.793712778096   -1.401065514166   -0.913684635419
 H   -3.115712778096   -0.438065514166    0.739315364581
 H    3.385267221904   -0.825515514166   -0.904018635419
