13
1 1 
 C    1.301933279002   -0.357502637309   -1.469812553097
 C   -0.316066720998    0.078497362691    0.357187446903
 N   -1.348066720998   -0.330502637309    1.060187446903
 N    0.184933279002   -0.694502637309   -0.587812553097
 N    0.199933279002    1.253497362691    0.626187446903
 H   -1.853066720998   -1.162502637309    0.731187446903
 H   -1.774066720998    0.274497362691    1.741187446903
 H   -0.281066720998   -1.591502637309   -0.744812553097
 H    0.999933279002    1.578497362691    0.110187446903
 H   -0.193066720998    1.837497362691    1.347187446903
 H    1.319933279002    0.716497362691   -1.667812553097
 H    1.134933279002   -0.839502637309   -2.432812553097
 H    2.290963279002   -0.666162637309   -1.100285553097
