10
-1 1 
 C    0.618545024541    0.722994692868   -0.460071281678
 C    1.969545024541    0.214994692868    0.030928718322
 C   -0.548454975459   -0.106005307132    0.005928718322
 O   -0.436454975459   -0.775005307132    1.054928718322
 O   -1.602454975459   -0.031005307132   -0.664071281678
 H    0.490545024541    1.738994692868   -0.082071281678
 H    0.622545024541    0.789994692868   -1.549071281678
 H    1.979545024541    0.166994692868    1.119928718322
 H    2.716545024541    0.949994692868   -0.269071281678
 H    2.264215024541   -0.760297307132   -0.383771281678
