7
-1 1 
 C   -1.057931205390    0.513733388884   -0.824303976841
 C    0.058068794610   -0.018266611116    0.053696023159
 O   -0.191931205390   -0.332266611116    1.232696023159
 O    1.193068794610   -0.158266611116   -0.451303976841
 H   -1.625931205390   -0.340266611116   -1.199303976841
 H   -0.610931205390    1.007733388884   -1.691303976841
 H   -1.746727205390    1.218213388884   -0.335153976841
