7
-1 1 
 C    1.060985665245    0.646196197753    0.740559241017
 C   -0.061014334755   -0.038803802247   -0.037440758983
 O   -1.243014334755    0.099196197753    0.348559241017
 O    0.237985665245   -0.709803802247   -1.050440758983
 H    1.083985665245    1.709196197753    0.490559241017
 H    2.020985665245    0.212196197753    0.448559241017
 H    0.939075665245    0.537276197753    1.828339241017
