8
0 1 
 C    0.246071851078    0.712973766721    0.123275393453
 C   -0.250928148922   -0.713026233279   -0.125724606547
 H    1.323071851078    0.696973766721    0.290275393453
 H    0.038071851078    1.326973766721   -0.752724606547
 H   -0.229928148922    1.153973766721    0.998275393453
 H    0.060071851078   -1.329026233279    0.719275393453
 H   -1.348878148922   -0.727285323279   -0.191314606547
 H    0.215413851078   -1.120985033279   -1.034624606547
