13
1 1 
 C    0.124705648028   -1.388309087924   -1.418489944510
 C   -0.042294351972    0.335690912076    0.351510055490
 N   -0.150294351972   -0.918309087924   -0.057489944510
 N    0.332705648028    1.280690912076   -0.484489944510
 N   -0.294294351972    0.643690912076    1.604510055490
 H   -0.395294351972   -1.633309087924    0.623510055490
 H    0.363705648028   -2.452309087924   -1.356489944510
 H    1.002705648028   -0.895309087924   -1.840489944510
 H    0.576705648028    1.042690912076   -1.429489944510
 H    0.441705648028    2.230690912076   -0.167489944510
 H   -0.482294351972   -0.063309087924    2.298510055490
 H   -0.202294351972    1.599690912076    1.912510055490
 H   -0.731654351972   -1.274219087924   -2.099389944510
