7
-1 1 
 C    0.039043657932    0.242397298738    1.440326057635
 C   -0.003956342068   -0.021602701262   -0.077673942365
 O    0.825043657932    0.575397298738   -0.803673942365
 O   -0.859956342068   -0.803602701262   -0.562673942365
 H   -0.678956342068    1.032397298738    1.675326057635
 H    1.028043657932    0.599397298738    1.736326057635
 H   -0.212776342068   -0.638972701262    2.048415057635
