8
0 1 
 C    0.657009072555    0.149289509688    0.362476717267
 C   -0.659990927445   -0.146710490312   -0.357523282733
 H    1.373009072555    0.560289509688   -0.347523282733
 H    0.494009072555    0.871289509688    1.162476717267
 H    1.088009072555   -0.761710490312    0.775476717267
 H   -0.461990927445   -0.897710490312   -1.121523282733
 H   -1.403500927445   -0.541140490312    0.350726717267
 H   -1.054030927445    0.738274509688   -0.878613282733
