8
0 1 
 C    0.592861530372    0.294113019141    0.400980880310
 C   -0.590138469628   -0.290886980859   -0.407019119690
 H    1.184861530372    0.958113019141   -0.231019119690
 H    0.205861530372    0.859113019141    1.246980880310
 H    1.228861530372   -0.508886980859    0.771980880310
 H   -1.183138469628   -0.884886980859    0.286980880310
 H   -0.213956469628   -0.953146980859   -1.200680119690
 H   -1.254912669628    0.491283019141   -0.802347119690
