11
0 1 
 C   -0.063343378737    0.495584634626   -0.372201853645
 C   -0.333343378737   -0.935415365374   -0.724201853645
 C    0.391656621263    0.479584634626    1.065798146355
 H   -0.992343378737    1.054584634626   -0.455201853645
 H    0.693656621263    0.932584634626   -1.019201853645
 H   -1.213343378737   -1.007415365374   -1.364201853645
 H    0.540656621263   -1.353415365374   -1.226201853645
 H    0.137656621263    1.404584634626    1.578798146355
 H    1.472656621263    0.333584634626    1.090798146355
 H   -0.485803378737   -1.439865365374    0.241348146355
 H   -0.093243378737   -0.397985365374    1.518278146355
