8
0 1 
 C   -0.146656017697   -0.047238717035    0.743868935438
 C    0.155343982303    0.040761282965   -0.747131064562
 H    0.601343982303   -0.668238717035    1.240868935438
 H   -0.132656017697    0.949761282965    1.179868935438
 H   -1.132656017697   -0.483238717035    0.905868935438
 H   -0.543656017697    0.761761282965   -1.170131064562
 H   -0.065366017697   -0.924457717035   -1.226339064562
 H    1.169543982303    0.441538282965   -0.891295064562
