11
0 1 
 C   -0.009077484440    0.065694304784    0.636820947488
 C   -0.807077484440    0.853694304784   -0.384179052512
 C    0.817922515560   -0.915305695216   -0.202179052512
 H   -0.709077484440   -0.477305695216    1.270820947488
 H    0.630922515560    0.714694304784    1.233820947488
 H   -1.706077484440    1.286694304784    0.054820947488
 H   -0.197077484440    1.630694304784   -0.828179052512
 H    1.719922515560   -0.410305695216   -0.551179052512
 H   -1.047681484440    0.089422304784   -1.137839052512
 H    0.182408515560   -1.117139695216   -1.077039052512
 H    1.105614515560   -1.765368695216    0.433920947488
