18
0 1 
 C   -0.822044142186    1.075087292993    0.787314918728
 C   -1.899044142186    1.656087292993   -0.083685081272
 C   -1.086044142186   -0.343912707007   -1.155685081272
 C    1.925955857814   -0.200912707007    1.164314918728
 C    0.938955857814   -0.636912707007    0.078314918728
 O    1.210955857814   -1.598912707007   -0.644685081272
 N   -0.202044142186    0.058087292993   -0.070685081272
 H   -0.151044142186    1.868087292993    1.088314918728
 H   -1.230044142186    0.589087292993    1.662314918728
 H   -1.470044142186    2.447087292993   -0.699685081272
 H   -2.733044142186    2.044087292993    0.495314918728
 H   -1.336044142186   -1.398912707007   -1.071685081272
 H    2.859955857814   -0.696912707007    0.901314918728
 H   -2.216074142186    0.825077292993   -0.730925081272
 H   -1.982784142186    0.278623292993   -1.020385081272
 H   -0.641774142186   -0.169816707007   -2.146805081272
 H    2.095765857814    0.885900292993    1.164314918728
 H    1.612515857814   -0.552362707007    2.158417918728
