19
0 1 
 C   -0.814599418815   -1.794099810081    2.220684896722
 C   -0.298599418815   -0.312099810081    0.116684896722
 C   -0.059599418815   -0.733099810081    1.470684896722
 C    0.635400581185    0.705900189919   -0.194315103278
 C    0.970400581185    0.028900189919    1.918684896722
 C   -1.193599418815   -0.730099810081   -0.874315103278
 C   -1.151599418815   -0.130099810081   -2.115315103278
 C   -0.230599418815    0.883900189919   -2.393315103278
 C    0.677400581185    1.317900189919   -1.438315103278
 N    1.403400581185    0.885900189919    0.926684896722
 H   -1.916599418815   -1.504099810081   -0.667315103278
 H   -1.832599418815   -0.458099810081   -2.882315103278
 H   -0.223599418815    1.319900189919   -3.376315103278
 H   -0.239599418815   -2.714099810081    2.214684896722
 H   -1.717599418815   -1.981099810081    1.645684896722
 H    1.407400581185   -0.035099810081    2.905684896722
 H    2.166400581185    1.547900189919    1.033684896722
 H    1.391400581185    2.097900189919   -1.648315103278
 H   -1.086339418815   -1.498509810081    3.244784896722
