9
0 1 
 C    0.691766688354    1.178866591342   -0.437141993069
 C   -0.065233311646   -0.044133408658    0.002858006931
 O   -1.047233311646   -0.366133408658   -0.672141993069
 N    0.391766688354   -0.731133408658    1.047858006931
 H    1.583766688354    1.301866591342    0.179858006931
 H    0.056766688354    2.054866591342   -0.313141993069
 H   -0.111233311646   -1.557133408658    1.340858006931
 H    1.198766688354   -0.409133408658    1.561858006931
 H    0.988916688354    1.067886591342   -1.490411993069
