8
0 1 
 C   -0.357909543849   -0.361654872469   -0.568694189994
 C    0.357090456151    0.365345127531    0.565305810006
 H    0.351090456151   -0.961654872469   -1.141694189994
 H   -1.106909543849   -1.032654872469   -0.150694189994
 H   -0.863909543849    0.349345127531   -1.220694189994
 H    0.996090456151   -0.353654872469    1.076305810006
 H    0.978440456151    1.182155127531    0.169385810006
 H   -0.345049543849    0.772525127531    1.307735810006
