8
0 1 
 C    0.496340235257   -0.094454718739    0.582235356186
 C   -0.497659764743    0.094545281261   -0.582764643814
 H    1.449340235257    0.375545281261    0.336235356186
 H    0.099340235257    0.361545281261    1.489235356186
 H    0.661340235257   -1.159454718739    0.762235356186
 H   -1.446659764743   -0.375454718739   -0.324764643814
 H   -0.105079764743   -0.373834718739   -1.497364643814
 H   -0.642569764743    1.170575281261   -0.759274643814
