8
0 1 
 C    0.683525295233   -0.301869535313   -0.165428662604
 C   -0.688474704767    0.294130464687    0.164571337396
 H    0.999525295233   -0.030869535313   -1.172428662604
 H    1.434525295233    0.089130464687    0.515571337396
 H    0.653525295233   -1.389869535313   -0.087428662604
 H   -0.552474704767    1.367130464687    0.294571337396
 H   -1.402404704767    0.149223464687   -0.659628662604
 H   -1.073764704767   -0.092597535313    1.119551337396
