22
0 1 
 C   -1.948108026962   -1.483022641833   -0.960116881635
 C   -1.618108026962   -1.466022641833   -2.449116881635
 C   -1.281108026962   -0.321022641833   -0.329116881635
 C   -1.792108026962    0.925977358167   -0.161116881635
 C    0.077891973038   -0.265022641833    0.118883118365
 C    0.315891973038    1.048977358167    0.588883118365
 C    1.112891973038   -1.202022641833    0.191883118365
 C    1.536891973038    1.439977358167    1.116883118365
 C    2.337891973038   -0.814022641833    0.722883118365
 C    2.545891973038    0.495977358167    1.173883118365
 N   -0.846108026962    1.748977358167    0.402883118365
 H   -3.024108026962   -1.446022641833   -0.795116881635
 H   -1.555108026962   -2.398022641833   -0.518116881635
 H   -0.530108026962   -1.422022641833   -2.507116881635
 H   -2.804108026962    1.219977358167   -0.420116881635
 H   -1.005108026962    2.720977358167    0.647883118365
 H    0.923891973038   -2.212022641833   -0.125116881635
 H    1.693891973038    2.450977358167    1.468883118365
 H    3.143891973038   -1.533022641833    0.802883118365
 H    3.509891973038    0.769977358167    1.583883118365
 H   -2.001468026962   -0.546872641833   -2.916237881635
 H   -1.930478026962   -2.374932641833   -2.984194881635
