16
0 1 
 C    1.961814721272    1.579514828303    1.512639711560
 C   -1.326185278728    0.229514828303    0.179639711560
 C   -0.384185278728    0.986514828303    0.858639711560
 C   -0.915185278728   -0.752485171697   -0.701360288440
 C    0.980814721272    0.780514828303    0.702639711560
 C    0.438814721272   -0.990485171697   -0.876360288440
 C    1.388814721272   -0.221485171697   -0.176360288440
 O   -1.859185278728   -1.473485171697   -1.374360288440
 H   -2.379185278728    0.418514828303    0.332639711560
 H   -0.727185278728    1.751514828303    1.543639711560
 H   -2.750185278728   -1.182485171697   -1.144360288440
 H    0.762814721272   -1.757485171697   -1.562360288440
 H    1.508814721272    2.532514828303    1.791639711560
 H    2.827814721272    1.797514828303    0.895639711560
 H    2.439814721272   -0.421485171697   -0.323360288440
 H    2.287304721272    1.057584828303    2.424589711560
