8
0 1 
 C    0.579569095850   -0.446677686554    0.212085503475
 C   -0.579430904150    0.449322313446   -0.210914496525
 H    0.195569095850   -1.273677686554    0.807085503475
 H    1.065569095850   -0.854677686554   -0.673914496525
 H    1.306569095850    0.118322313446    0.794085503475
 H   -1.310430904150   -0.160677686554   -0.742914496525
 H   -1.040790904150    0.895611313446    0.682380503475
 H   -0.218130904150    1.243610313446   -0.880665496525
