8
0 1 
 C    0.224401951938   -0.631378456463    0.362445556116
 C   -0.225598048062    0.629621543537   -0.363554443884
 H    0.133401951938   -1.469378456463   -0.316554443884
 H    1.258401951938   -0.526378456463    0.691445556116
 H   -0.403598048062   -0.803378456463    1.238445556116
 H    0.045401951938    1.484621543537    0.257445556116
 H   -1.312498048062    0.598611543537   -0.529954443884
 H    0.293131951938    0.736821543537   -1.327624443884
