8
0 1 
 C   -0.437151289256    0.522002001944   -0.340735601534
 C    0.439848710744   -0.517997998056    0.345264398466
 H    0.029848710744    1.506002001944   -0.337735601534
 H   -0.599151289256    0.224002001944   -1.376735601534
 H   -1.411151289256    0.575002001944    0.144264398466
 H   -0.012151289256   -1.499997998056    0.212264398466
 H    0.523768710744   -0.316729998056    1.423434398466
 H    1.436718710744   -0.535952998056   -0.119415601534
