8
0 1 
 C   -0.568164657017    0.513635435537    0.019303651846
 C    0.561835342983   -0.514364564463   -0.024696348154
 H   -1.277164657017    0.249635435537    0.801303651846
 H   -0.155164657017    1.493635435537    0.252303651846
 H   -1.081164657017    0.549635435537   -0.941696348154
 H    0.961835342983   -0.596364564463    0.981303651846
 H    0.250895342983   -1.518115564463   -0.349966348154
 H    1.376125342983   -0.169744564463   -0.679038348154
