8
0 1 
 C   -0.096639181647   -0.361511085991    0.673657874917
 C    0.093360818353    0.358488914009   -0.674342125083
 H   -0.412639181647   -1.391511085991    0.501657874917
 H    0.849360818353   -0.372511085991    1.211657874917
 H   -0.841639181647    0.158488914009    1.271657874917
 H    0.937360818353   -0.106511085991   -1.181342125083
 H   -0.805629181647    0.327760914009   -1.307492125083
 H    0.312220818353    1.420267914009   -0.487992125083
