8
0 1 
 C    0.458690852130    0.581623852166   -0.065707197482
 C   -0.458309147870   -0.584376147834    0.069292802518
 H    1.422690852130    0.285623852166   -0.481707197482
 H    0.005690852130    1.325623852166   -0.720707197482
 H    0.610690852130    1.036623852166    0.912292802518
 H   -1.465309147870   -0.239376147834    0.305292802518
 H   -0.120779147870   -1.283490147834    0.848592802518
 H   -0.457529147870   -1.092234147834   -0.906457197482
