8
0 1 
 C   -0.047101999297    0.548126771228    0.544560536977
 C    0.052898000703   -0.544873228772   -0.545439463023
 H    0.813898000703    1.207126771228    0.503560536977
 H   -0.939101999297    1.148126771228    0.358560536977
 H   -0.147101999297    0.118126771228    1.542560536977
 H   -0.812101999297   -1.198873228772   -0.428439463023
 H    0.962498000703   -1.142523228772   -0.385923463023
 H    0.052898000703   -0.170723228772   -1.579853463023
