8
0 1 
 C   -0.719913249736   -0.167744960597    0.175641774913
 C    0.722086750264    0.166255039403   -0.176358225087
 H   -1.009913249736   -1.113744960597   -0.281358225087
 H   -0.820913249736   -0.247744960597    1.257641774913
 H   -1.381913249736    0.623255039403   -0.177358225087
 H    0.980086750264    1.111255039403    0.297641774913
 H    0.800216750264    0.261744039403   -1.269418225087
 H    1.406556750264   -0.617023960597    0.181381774913
