7
-1 1 
 C   -1.428487710789   -0.085648210464    0.032993578559
 C    0.071512289211    0.004351789536   -0.019006421441
 O    0.723512289211   -0.503648210464   -0.959006421441
 O    0.636512289211    0.581351789536    0.931993578559
 H   -1.809487710789    0.933351789536    0.071993578559
 H   -1.704487710789   -0.559648210464    0.974993578559
 H   -1.913327710789   -0.638933210464   -0.784816421441
