8
0 1 
 C   -0.464201004700   -0.084542139836   -0.624868410264
 C    0.459798995300    0.082457860164    0.626131589736
 H   -1.268201004700    0.647457860164   -0.599868410264
 H    0.125798995300    0.084457860164   -1.526868410264
 H   -0.877201004700   -1.091542139836   -0.680868410264
 H    1.229798995300   -0.685542139836    0.583131589736
 H   -0.103411004700    0.000757860164    1.567471589736
 H    0.945628995300    1.069227860164    0.641961589736
