7
-1 1 
 C   -0.822393907933   -1.080965957968   -0.440485432167
 C    0.044606092067    0.069034042032    0.017514567833
 O    0.171606092067    0.211034042032    1.246514567833
 O    0.610606092067    0.805034042032   -0.825485432167
 H   -1.165393907933   -0.902965957968   -1.456485432167
 H   -1.702393907933   -1.133965957968    0.204514567833
 H   -0.285500907933   -2.039905957968   -0.393825432167
