8
0 1 
 C    0.024436499863    0.491750801659    0.588148399862
 C   -0.025563500137   -0.495249198341   -0.585851600138
 H   -0.201563500137   -0.010249198341    1.529148399862
 H    1.011436499863    0.948750801659    0.631148399862
 H   -0.703563500137    1.283750801659    0.413148399862
 H    0.259436499863    0.034750801659   -1.496851600138
 H   -1.041433500137   -0.902809198341   -0.694938600138
 H    0.689106499863   -1.312539198341   -0.409002600138
