8
0 1 
 C   -0.729676232770   -0.003806938930    0.250918600101
 C    0.734323767230    0.009193061070   -0.250081399899
 H   -1.030676232770   -1.027806938930    0.475918600101
 H   -0.813676232770    0.597193061070    1.154918600101
 H   -1.392676232770    0.402193061070   -0.514081399899
 H    1.033323767230    1.036193061070   -0.478081399899
 H    0.783693767230   -0.602876938930   -1.162731399899
 H    1.364673767230   -0.469026938930    0.514088600101
