11
0 1 
 C    0.213358445840   -0.395694807891   -0.482566420221
 C    0.322358445840    1.124305192109   -0.426566420221
 C   -0.514641554160   -0.767694807891    0.871433579779
 H    1.182358445840   -0.877694807891   -0.565566420221
 H   -0.421641554160   -0.681694807891   -1.322566420221
 H    1.247358445840    1.390305192109    0.088433579779
 H    0.334358445840    1.554305192109   -1.429566420221
 H   -1.265641554160   -1.538694807891    0.707433579779
 H   -0.529884554160    1.503325192109    0.156543579779
 H   -0.972192554160    0.194815192109    1.143853579779
 H    0.174344445840   -1.079294807891    1.670313579779
