14
0 1 
 C    0.297483824073   -0.144947086569   -0.151425387032
 C    0.702483824073    0.788052913431    1.015574612968
 C   -0.568516175927   -1.312947086569    0.388574612968
 C   -0.397516175927    0.654052913431   -1.271425387032
 H    1.199483824073   -0.552947086569   -0.608425387032
 H   -0.174516175927    1.337052913431    1.364574612968
 H   -1.469516175927   -0.917947086569    0.861574612968
 H   -0.850516175927   -1.973947086569   -0.429425387032
 H   -0.006516175927   -1.887947086569    1.125574612968
 H    0.211483824073    1.536052913431   -1.480425387032
 H   -0.417516175927    0.026052913431   -2.164425387032
 H    1.511903824073    1.452772913431    0.679444612968
 H    1.013253824073    0.202402913431    1.893324612968
 H   -1.421606175927    0.966442913431   -1.019115387032
