15
0 1 
 C   -1.905040138037   -0.870300617167   -1.174573732335
 C    1.436959861963    0.641699382833    0.917426267665
 C    0.428959861963    0.068699382833    1.604426267665
 C    1.341959861963    0.732699382833   -0.467573732335
 C   -0.642040138037   -0.412300617167    0.908426267665
 C    0.359959861963    0.195699382833   -1.179573732335
 C   -0.703040138037   -0.333300617167   -0.473573732335
 H    1.968959861963    1.389699382833    1.468426267665
 H    0.409959861963    0.090699382833    2.686426267665
 H    1.688959861963    1.661699382833   -0.908573732335
 H   -1.475040138037   -0.832300617167    1.457426267665
 H    0.281959861963    0.365699382833   -2.243573732335
 H   -2.050040138037   -0.298300617167   -2.092573732335
 H   -2.787040138037   -0.711300617167   -0.551573732335
 H   -1.820745138037   -1.938510617167   -1.423213732335
