8
0 1 
 C   -0.146690835827    0.746071460070   -0.054183031173
 C    0.143309164173   -0.748928539930    0.054816968827
 H    0.022309164173    1.231071460070    0.908816968827
 H    0.519309164173    1.192071460070   -0.791183031173
 H   -1.175690835827    0.919071460070   -0.369183031173
 H   -0.073690835827   -1.229928539930   -0.899183031173
 H   -0.462340835827   -1.202808539930    0.853046968827
 H    1.210369164173   -0.875458539930    0.290136968827
