8
0 1 
 C    0.574344763383    0.085123065341    0.495795373735
 C   -0.575655236617   -0.078876934659   -0.494204626265
 H    0.251344763383   -0.166876934659    1.504795373735
 H    1.385344763383   -0.588876934659    0.220795373735
 H    0.946344763383    1.107123065341    0.467795373735
 H   -0.916655236617   -1.112876934659   -0.442204626265
 H   -1.421217236617    0.580373065341   -0.248418626265
 H   -0.229558236617    0.106763065341   -1.521703626265
