8
0 1 
 C    0.195179806362    0.642580941808    0.361528207613
 C   -0.190820193638   -0.641419058192   -0.367471792387
 H   -0.632820193638    1.351580941808    0.333528207613
 H    0.423179806362    0.410580941808    1.400528207613
 H    1.078179806362    1.095580941808   -0.085471792387
 H   -1.040820193638   -1.065419058192    0.162528207613
 H   -0.508691193638   -0.431879058192   -1.399481792387
 H    0.629062806362   -1.374279058192   -0.340861792387
