8
0 1 
 C   -0.098720385106    0.748299543459   -0.106136956404
 C    0.101279614894   -0.750700456541    0.104863043596
 H   -0.061720385106    0.986299543459   -1.171136956404
 H   -1.066720385106    1.067299543459    0.272863043596
 H    0.674279614894    1.314299543459    0.413863043596
 H    0.215279614894   -0.941700456541    1.172863043596
 H    0.993789614894   -1.089680456541   -0.441506956404
 H   -0.785380385106   -1.307930456541   -0.231776956404
