18
0 1 
 C   -1.355787147637    0.652611680823    0.232268326518
 C   -2.175787147637    0.735611680823   -1.023731673482
 C   -0.223787147637   -0.570388319177   -1.532731673482
 C    2.124212852363   -0.917388319177    0.157268326518
 C    0.905212852363   -0.155388319177    0.653268326518
 O    0.904212852363    0.347611680823    1.772268326518
 N   -0.146787147637   -0.075388319177   -0.160731673482
 H   -1.124787147637    1.651611680823    0.607268326518
 H   -1.895787147637    0.073611680823    0.980268326518
 H   -1.928787147637    1.645611680823   -1.566731673482
 H   -3.239787147637    0.714611680823   -0.795731673482
 H    0.086212852363   -1.608388319177   -1.592731673482
 H    2.101212852363   -0.992388319177   -0.924731673482
 H   -1.849076147637   -0.136339319177   -1.609359673482
 H   -1.299819147637   -0.500758319177   -1.750234673482
 H    0.357052852363    0.065941680823   -2.216623673482
 H    3.049292852363   -0.401245319177    0.453628326518
 H    2.076862852363   -1.946100819177    0.543928326518
