8
0 1 
 C   -0.553979416904   -0.391999255401   -0.348630918903
 C    0.552020583096    0.399000744599    0.347369081097
 H   -1.055979416904    0.226000744599   -1.096630918903
 H   -0.119979416904   -1.262999255401   -0.837630918903
 H   -1.276979416904   -0.767999255401    0.373369081097
 H    0.971020583096   -0.227999255401    1.133369081097
 H    0.150440583096    1.313250744599    0.808759081097
 H    1.354800583096    0.636380744599   -0.366210918903
