12
0 1 
 C   -0.818940786147   -0.638360673919    0.457371060075
 C   -1.727940786147   -0.922360673919   -0.742628939925
 C    0.717059213853    1.689639326081    0.204371060075
 S    0.869059213853   -0.101360673919    0.038371060075
 H   -1.270940786147    0.107639326081    1.105371060075
 H   -0.736940786147   -1.564360673919    1.025371060075
 H   -2.722940786147   -1.186360673919   -0.382628939925
 H   -1.321940786147   -1.777360673919   -1.281628939925
 H    0.327059213853    1.939639326081    1.191371060075
 H    1.696059213853    2.151639326081    0.080371060075
 H    0.044059213853    2.085639326081   -0.550628939925
 H   -1.796920786147   -0.075930673919   -1.441768939925
