8
0 1 
 C    0.378998797310   -0.347124529682    0.558969035288
 C   -0.384001202690    0.342875470318   -0.560030964712
 H    0.226998797310   -1.423124529682    0.518969035288
 H    1.443998797310   -0.135124529682    0.461969035288
 H    0.042998797310    0.029875470318    1.513969035288
 H   -0.206001202690    1.411875470318   -0.444030964712
 H   -1.460211202690    0.124315470318   -0.496720964712
 H    0.011778797310    0.042775470318   -1.541510964712
