9
0 1 
 C    1.022517034679    0.192337559059   -0.989562439547
 C   -0.014482965321    0.038337559059    0.079437560453
 O   -0.153482965321    0.880337559059    0.954437560453
 N   -0.804482965321   -1.041662440941   -0.025562439547
 H    0.679517034679   -0.309662440941   -1.896562439547
 H    1.910517034679   -0.337662440941   -0.646562439547
 H   -1.580482965321   -1.130662440941    0.611437560453
 H   -0.680482965321   -1.697662440941   -0.780562439547
 H    1.282097034679    1.230667559059   -1.243492439547
