9
0 1 
 C   -0.735242848168    0.360706096089    1.173169092287
 C    0.013757151832    0.035706096089   -0.073830907713
 O   -0.028242848168    0.767706096089   -1.055830907713
 N    0.700757151832   -1.090293903911   -0.055830907713
 H   -0.067242848168    0.316706096089    2.028169092287
 H   -1.431242848168   -0.468293903911    1.306169092287
 H    1.403757151832   -1.233293903911   -0.764830907713
 H    0.716757151832   -1.659293903911    0.781169092287
 H   -1.319752848168    1.289036096089    1.092229092287
