8
0 1 
 C    0.106084083232    0.723562052098    0.217620275635
 C   -0.106915916768   -0.723437947902   -0.212379724365
 H    0.507084083233    0.770562052098    1.232620275635
 H    0.818084083233    1.176562052098   -0.472379724365
 H   -0.835915916768    1.270562052098    0.176620275635
 H   -0.562915916768   -0.733437947902   -1.200379724365
 H   -0.773685916768   -1.239007947902    0.494450275635
 H    0.857254083232   -1.246717947902   -0.293329724365
