8
0 1 
 C    0.225772554839    0.641976291782    0.350608372216
 C   -0.220227445161   -0.641023708218   -0.356391627784
 H    1.024772554839    1.159976291782   -0.178391627784
 H   -0.631227445161    1.306976291782    0.457608372216
 H    0.575772554839    0.374976291782    1.347608372216
 H   -0.888227445161   -1.186023708218    0.310608372216
 H    0.637722554839   -1.283423708218   -0.603851627784
 H   -0.784837445161   -0.383823708218   -1.264721627784
