11
0 1 
 C    0.417570832714   -0.001210783735   -0.399584366716
 C   -0.940429167286    0.683789216265   -0.604584366716
 C    0.542570832714   -0.681210783735    0.974415633284
 H    0.596570832714   -0.736210783735   -1.181584366716
 H    1.206570832714    0.746789216265   -0.460584366716
 H   -1.126429167286    1.365789216265    0.228415633284
 H   -0.000429167286   -1.625210783735    0.992415633284
 H    1.591570832714   -0.898210783735    1.173415633284
 H    0.169570832714   -0.022210783735    1.759415633284
 H   -0.956789167286    1.249881126265   -1.547594366716
 H   -1.715349167286   -0.096900783735   -0.609634366716
