11
0 1 
 C   -0.435359529325    0.091939354330    0.346920721659
 C    0.816640470675    0.950939354330    0.339920721659
 C   -0.410359529325   -1.034060645670   -0.670079278341
 H   -0.546359529325   -0.351060645670    1.338920721659
 H   -1.302359529325    0.724939354330    0.159920721659
 H    0.880640470675    1.540939354330   -0.570079278341
 H    1.681640470675    0.283939354330    0.359920721659
 H   -0.301359529325   -0.625060645670   -1.677079278341
 H    0.425640470675   -1.702060645670   -0.453079278341
 H    0.870800470675    1.601559354330    1.225220721659
 H   -1.362409529325   -1.578190645670   -0.583329278341
