6
0 1 
 C   -0.697799514468    0.139750402770   -0.129406106359
 O    0.669200485532   -0.075249597230    0.134593893641
 H    0.862200485532   -1.011249597230   -0.014406106359
 H   -1.278799514468   -0.576249597230    0.451593893641
 H   -0.888799514468   -0.039249597230   -1.185406106359
 H   -1.006719514468    1.157030402770    0.152931893641
