18
0 1 
 C   -1.116862019976    0.989510256541    0.170172453699
 C   -0.776862019976    2.069510256541    1.235172453699
 C    0.848137980024    0.300510256541    1.417172453699
 C   -0.696862019976   -1.092489743459   -1.799827546301
 C    0.316137980024   -0.880489743459   -0.678827546301
 O    1.382137980024   -1.486489743459   -0.662827546301
 N    0.001137980024    0.031510256541    0.251172453699
 H   -2.042862019976    0.489510256541    0.424172453699
 H   -1.187862019976    1.449510256541   -0.815827546301
 H   -1.675862019976    2.502510256541    1.674172453699
 H   -0.166862019976    2.846510256541    0.791172453699
 H    1.750137980024    0.805510256541    1.068172453699
 H   -1.697862019976   -0.855489743459   -1.442827546301
 H   -0.198082019976    1.497982256541    1.975692453699
 H    0.254741980024    1.004406256541    2.019182453699
 H    1.135829980024   -0.549552743459    2.053272453699
 H   -0.441535019976   -0.421299743459   -2.633077546301
 H   -0.698297019976   -2.125169743459   -2.178737546301
