8
0 1 
 C    0.642723510228    0.315918387359   -0.238850723244
 C   -0.644276489772   -0.317081612641    0.236149276756
 H    0.653723510228    0.361918387359   -1.329850723244
 H    0.719723510228    1.329918387359    0.157149276756
 H    1.499723510228   -0.258081612641    0.117149276756
 H   -0.637276489772   -0.304081612641    1.324149276756
 H   -0.693266489772   -1.356751612641   -0.119770723244
 H   -1.524136489772    0.240928387359   -0.116660723244
