8
0 1 
 C   -0.258572891806    0.098239592994    0.711354663923
 C    0.257427108194   -0.102760407006   -0.711645336077
 H   -0.615572891806   -0.848760407006    1.122354663923
 H    0.542427108194    0.477239592994    1.344354663923
 H   -1.079572891806    0.816239592994    0.705354663923
 H    0.556427108194    0.867239592994   -1.106645336077
 H   -0.538742891806   -0.510648407006   -1.351750336077
 H    1.148677108194   -0.747481407006   -0.710207336077
