7
-1 1 
 C    1.181999804267    0.698202675398    0.461885987795
 C   -0.046000195733   -0.024797324602   -0.051114012205
 O   -0.533000195733    0.137202675398   -1.181114012205
 O   -0.601000195733   -0.809797324602    0.752885987795
 H    1.711999804267    0.050202675398    1.164885987795
 H    0.859999804267    1.563202675398    1.037885987795
 H    1.899256804267    1.043037675398   -0.297474012205
