11
0 1 
 C    0.110804135598    0.025718946382    0.555926434517
 C   -1.075195864402   -0.766281053618   -0.020073565483
 C    0.973804135598    0.746718946382   -0.497073565483
 H   -0.287195864402    0.761718946382    1.247926434517
 H    0.749804135598   -0.678281053618    1.085926434517
 H   -0.677195864402   -1.473281053618   -0.755073565483
 H    1.280804135598    0.014718946382   -1.245073565483
 H    0.385804135598    1.518718946382   -0.996073565483
 H   -1.783866864402   -0.075681053618   -0.500553565483
 H   -1.634657864402   -1.348641053618    0.726826434517
 H    1.854432135598    1.207418946382   -0.025643565483
