7
-1 1 
 C   -0.795527750253   -0.422610257059   -1.129260947259
 C    0.036472249747    0.026389742941    0.067739052741
 O   -0.254527750253   -0.385610257059    1.206739052741
 O    1.009472249747    0.785389742941   -0.139260947259
 H   -0.244527750253   -1.215610257059   -1.630260947259
 H   -0.917527750253    0.401389742941   -1.835260947259
 H   -1.781517750253   -0.812840257059   -0.836770947259
