11
0 1 
 C    0.284839033222   -0.087460017741    0.490883779811
 C    0.946839033222    0.458539982259   -0.796116220189
 C   -1.206160966778   -0.379460017741    0.332883779811
 H    0.788839033222   -0.999460017741    0.800883779811
 H    0.365839033222    0.631539982259    1.304883779811
 H    0.307839033222    1.250539982259   -1.185116220189
 H   -1.367160966778   -1.186460017741   -0.379116220189
 H   -1.631160966778   -0.672460017741    1.286883779811
 H   -1.724160966778    0.513539982259   -0.003116220189
 H    1.937009033222    0.894099982259   -0.596516220189
 H    1.019129033222   -0.331560017741   -1.558026220189
