15
0 1 
 C    1.096837845659   -1.928392489225   -1.034532450247
 C   -0.834162154341    1.455607510775    0.792467549753
 C    0.474837845659    1.571607510775    0.323467549753
 C   -1.513162154341    0.250607510775    0.662467549753
 C    1.099837845659    0.477607510775   -0.276532450247
 C   -0.884162154341   -0.843392489225    0.070467549753
 C    0.427837845659   -0.741392489225   -0.396532450247
 H   -1.325162154341    2.297607510775    1.256467549753
 H    1.003837845659    2.509607510775    0.416467549753
 H   -2.534162154341    0.182607510775    0.995467549753
 H    2.108837845659    0.579607510775   -0.649532450247
 H   -1.429162154341   -1.770392489225   -0.039532450247
 H    1.703837845659   -1.587392489225   -1.874532450247
 H    0.323837845659   -2.580392489225   -1.441532450247
 H    1.721444845659   -2.515712489225   -0.345384450247
