12
0 1 
 C   -1.604990722852    1.019748854563   -1.131813595010
 C    0.213009277148    0.826748854563    0.721186404990
 C   -0.503990722852    0.370748854563   -0.343813595010
 C    0.896009277148   -1.207251145437    0.266186404990
 N    1.078009277148   -0.168251145437    1.077186404990
 N   -0.051990722852   -0.907251145437   -0.611813595010
 H    0.179009277148    1.765748854563    1.243186404990
 H    1.744009277148   -0.117251145437    1.840186404990
 H   -2.505990722852    0.975748854563   -0.521813595010
 H   -1.751990722852    0.405748854563   -2.026813595010
 H    1.395009277148   -2.168251145437    0.258186404990
 H   -1.409520722852    2.055818854563   -1.445423595010
