8
0 1 
 C   -0.567491614581    0.484326231140   -0.147593000507
 C    0.567508385419   -0.488673768860    0.143406999493
 H   -1.370491614581    0.354326231140    0.577406999493
 H   -0.208491614581    1.511326231140   -0.068593000507
 H   -0.963491614581    0.323326231140   -1.148593000507
 H    0.828508385419   -0.391673768860    1.195406999493
 H    0.262628385419   -1.527265768860   -0.052493000507
 H    1.451138385419   -0.218273768860   -0.453293000507
