8
0 1 
 C   -0.345553453937    0.393537633759   -0.553672605459
 C    0.347446546063   -0.393462366241    0.553327394541
 H    0.340446546063    0.556537633759   -1.386672605459
 H   -1.216553453937   -0.157462366241   -0.911672605459
 H   -0.677553453937    1.358537633759   -0.167672605459
 H   -0.370553453937   -0.564462366241    1.358327394541
 H    1.208126546063    0.170506633759    0.942141394541
 H    0.693546546063   -1.364553366241    0.169659394541
