12
0 1 
 C   -0.705999895882    0.940375341717   -0.071867051028
 C    0.174000104118    1.757375341717    0.920132948972
 C    0.262000104118   -1.566624658283    0.702132948972
 S    0.119000104118   -0.509624658283   -0.770867051028
 H   -1.618999895882    0.618375341717    0.430132948972
 H   -0.988999895882    1.591375341717   -0.900867051028
 H    1.151000104118    1.936375341717    0.472132948972
 H    0.318000104118    1.177375341717    1.831132948972
 H   -0.709999895882   -1.664624658283    1.184132948972
 H    0.613000104118   -2.555624658283    0.414132948972
 H    0.971000104118   -1.126624658283    1.402132948972
 H   -0.295299895882    2.722495341717    1.161591948972
