13
1 1 
 C   -1.100112994298   -1.273222072107    1.063131440722
 C    0.271887005702    0.312777927893   -0.253868559278
 N   -0.889112994298   -0.096222072107    0.238131440722
 N    1.380887005702   -0.361222072107   -0.075868559278
 N    0.286887005702    1.407777927893   -0.964868559278
 H   -1.711112994298    0.455777927893   -0.020868559278
 H    1.363887005702   -1.218222072107    0.455131440722
 H    2.245887005702   -0.040222072107   -0.482868559278
 H   -0.572112994298    1.961777927893   -1.025868559278
 H    1.166887005702    1.830777927893   -1.234868559278
 H   -0.524112994298   -1.188222072107    1.988131440722
 H   -0.765112994298   -2.160222072107    0.520131440722
 H   -2.161652994298   -1.409872072107    1.317009840722
