11
0 1 
 C    0.119437477777   -0.088499933022    0.566610099637
 C   -0.645562522223    1.110500066978    0.013610099637
 C    0.543437477777   -1.019499933022   -0.538389900363
 H    0.988437477777    0.242500066978    1.128610099637
 H   -0.524562522223   -0.663499933022    1.233610099637
 H   -1.179562522223    0.784500066978   -0.881389900363
 H    1.297437477777   -0.537499933022   -1.159389900363
 H    0.933437477777   -1.933499933022   -0.098389900363
 H   -0.311562522223   -1.288499933022   -1.157389900363
 H   -1.421938522223    1.427650066978    0.725410099637
 H    0.012177477777    1.938580066978   -0.289136900363
