8
0 1 
 C    0.122932139446   -0.497854641874   -0.597108691329
 C   -0.124067860554    0.496145358126    0.599891308671
 H   -0.138067860554   -1.509854641874   -0.283108691329
 H   -0.501067860554   -0.221854641874   -1.449108691329
 H    1.164932139446   -0.518854641874   -0.912108691329
 H   -0.098067860554    1.511145358126    0.198891308671
 H    0.690487139446    0.398765358126    1.332711308671
 H   -1.104692860554    0.361005358126    1.079591308671
