19
0 1 
 C   -1.124308145707   -1.907095721261   -1.996794739774
 C    0.844691854293    0.261904278739    0.374205260226
 C   -0.396308145707   -0.132095721261   -0.190794739774
 C   -0.120308145707   -1.166095721261   -1.152794739774
 C    1.233691854293   -1.347095721261   -1.134794739774
 C    0.938691854293    1.242904278739    1.348205260226
 C   -0.230308145707    1.853904278739    1.762205260226
 C   -1.565308145707    0.496904278739    0.254205260226
 C   -1.469308145707    1.486904278739    1.227205260226
 N    1.812691854293   -0.495095721261   -0.226794739774
 H    2.814691854293   -0.462095721261   -0.041794739774
 H    1.894691854293    1.522904278739    1.766205260226
 H    1.770691854293   -2.059095721261   -1.752794739774
 H   -0.186308145707    2.627904278739    2.518205260226
 H   -2.518308145707    0.230904278739   -0.172794739774
 H   -1.883308145707   -2.337095721261   -1.342794739774
 H   -0.602308145707   -2.737095721261   -2.473794739774
 H   -2.365308145707    1.984904278739    1.574205260226
 H   -1.621410145707   -1.300244721261   -2.767911739774
