12
0 1 
 C   -0.778129080806   -0.712670175707    1.936930980563
 C    0.681870919194    1.058329824293   -0.872069019437
 C   -0.265129080806   -0.908670175707   -0.588069019437
 C   -0.280129080806   -0.255670175707    0.602930980563
 N    0.343870919194   -0.068670175707   -1.493069019437
 N    0.330870919194    0.967329824293    0.408930980563
 H    0.487870919194   -0.269670175707   -2.488069019437
 H    1.179870919194    1.904329824293   -1.335069019437
 H   -0.632129080806   -1.910670175707   -0.772069019437
 H   -1.611129080806   -1.399670175707    1.772930980563
 H   -1.155129080806    0.149329824293    2.488930980563
 H   -0.006029080806   -1.212050175707    2.540650980563
