15
0 1 
 C   -2.247937300269    0.648431080317    0.709991917501
 C    1.705062699731   -0.492568919683   -0.546008082499
 C    1.306062699731   -0.705568919683    0.769991917501
 C    0.818062699731    0.081431080317   -1.449008082499
 C    0.022062699731   -0.332568919683    1.180991917501
 C   -0.455937300269    0.458431080317   -1.035008082499
 C   -0.863937300269    0.253431080317    0.278991917501
 H    2.697062699731   -0.781568919683   -0.868008082499
 H    2.002062699731   -1.140568919683    1.468991917501
 H    1.107062699731    0.213431080317   -2.479008082499
 H   -0.275937300269   -0.480568919683    2.204991917501
 H   -1.130937300269    0.922431080317   -1.739008082499
 H   -2.562937300269    1.519431080317    0.132991917501
 H   -2.215937300269    0.957431080317    1.755991917501
 H   -2.995297300269   -0.150518919683    0.595344817501
