11
0 1 
 C    0.525613364582    0.014548617613    0.190812419388
 C   -0.183386635418   -1.293451382387   -0.188187580612
 C   -0.319386635418    1.279548617613    0.007812419388
 H    0.867613364582   -0.032451382387    1.225812419388
 H    1.416613364582    0.110548617613   -0.429187580612
 H    0.510613364582   -2.109451382387    0.019812419388
 H   -1.180386635418    1.276548617613    0.672812419388
 H    0.292613364582    2.149548617613    0.248812419388
 H   -0.653386635418    1.371548617613   -1.025187580612
 H   -1.088136635418   -1.438297382387    0.420451419388
 H   -0.437496635418   -1.335684382387   -1.257600580612
