9
0 1 
 C    0.254048928164   -0.369059954957   -0.733542957339
 C   -0.978951071836   -1.276059954957   -0.757542957339
 S    0.338048928164    0.788940045043    0.656457042661
 H    1.150048928164   -0.995059954957   -0.703542957339
 H    0.282048928164    0.198940045043   -1.667542957339
 H   -0.763951071836   -2.076059954957   -1.458542957339
 H    0.214048928164   -0.088059954957    1.661457042661
 H   -1.852673071836   -0.714859954957   -1.120402957339
 H   -1.122444071836   -1.764939954957    0.217347042661
