15
0 1 
 C    0.740916331512    1.022945328430   -2.111525326603
 C   -0.555083668488   -0.750054671570    1.593474673397
 C   -1.361083668488   -0.882054671570    0.473474673397
 C    0.656916331512   -0.082054671570    1.519474673397
 C   -0.926083668488   -0.333054671570   -0.739525326603
 C    1.074916331512    0.489945328430    0.333474673397
 C    0.275916331512    0.398945328430   -0.806525326603
 H   -0.873083668488   -1.174054671570    2.536474673397
 H   -2.306083668488   -1.403054671570    0.538474673397
 H    1.275916331512    0.001945328430    2.402474673397
 H   -1.545083668488   -0.428054671570   -1.619525326603
 H    2.017916331512    1.017945328430    0.299474673397
 H    1.493916331512    1.780945328430   -1.894525326603
 H   -0.106083668488    1.527945328430   -2.569525326603
 H    1.156894331512    0.288361328430   -2.816754326603
