13
1 1 
 C    1.992415139448   -0.070893846095   -0.116422904385
 C   -0.488584860552    0.016106153905    0.033577095615
 N   -1.551584860552    0.422106153905    0.696577095615
 N    0.717415139448    0.301106153905    0.507577095615
 N   -0.634584860552   -0.666893846095   -1.085422904385
 H   -1.397584860552    1.082106153905    1.460577095615
 H   -2.484584860552    0.294106153905    0.318577095615
 H    0.751415139448    0.869106153905    1.344577095615
 H    0.180415139448   -1.003893846095   -1.568422904385
 H   -1.551584860552   -0.944893846095   -1.402422904385
 H    2.740415139448    0.662106153905    0.194577095615
 H    1.927415139448   -0.019893846095   -1.204422904385
 H    2.335635139448   -1.068903846095    0.193697095615
