13
1 1 
 C   -1.906051750808   -0.574843847799   -0.035311124389
 C    0.470948249192    0.129156152201    0.008688875611
 N   -0.711051750808   -0.016843847799    0.581688875611
 N    0.660948249192   -0.104843847799   -1.280311124389
 N    1.447948249192    0.570156152201    0.750688875611
 H   -0.783051750808    0.268156152201    1.559688875611
 H   -2.034051750808   -0.200843847799   -1.052311124389
 H   -2.779051750808   -0.267843847799    0.543688875611
 H   -0.115051750808   -0.392843847799   -1.852311124389
 H    1.561948249192    0.041156152201   -1.707311124389
 H    1.285948249192    0.683156152201    1.757688875611
 H    2.381948249192    0.618156152201    0.387688875611
 H   -1.853250750808   -1.673543847799   -0.043267524389
