8
0 1 
 C   -0.523527106484    0.518194435343   -0.179222292171
 C    0.528472893516   -0.518805564657    0.176777707829
 H   -0.121527106484    1.233194435343   -0.890222292171
 H   -1.393527106484    0.023194435343   -0.615222292171
 H   -0.835527106484    1.067194435343    0.702777707829
 H    0.039472893516   -1.268805564657    0.796777707829
 H    1.326145893516   -0.026765564657    0.752637707829
 H    0.926073893516   -1.020735564657   -0.717641292171
