7
-1 1 
 C   -0.660740632925    0.253238747403    1.251028587977
 C    0.038259367075   -0.018761252597   -0.067971412023
 O    1.164259367075    0.495238747403   -0.263971412023
 O   -0.536740632925   -0.739761252597   -0.915971412023
 H   -1.548740632925   -0.365761252597    1.345028587977
 H   -1.021740632925    1.280238747403    1.186028587977
 H    0.023081367075    0.174388747403    2.109032587977
