14
0 1 
 C    0.340957590940    0.173950419291   -0.138647679457
 C   -0.917042409060    1.012950419291   -0.423647679457
 C    0.491957590940    0.011950419291    1.375352320543
 C    0.136957590940   -1.171049580709   -0.821647679457
 H    1.224957590940    0.655950419291   -0.555647679457
 H   -1.768042409060    0.619950419291    0.135352320543
 H   -1.154042409060    0.882950419291   -1.481647679457
 H   -0.467042409060   -0.217049580709    1.835352320543
 H    1.188957590940   -0.797049580709    1.589352320543
 H    0.903957590940    0.918950419291    1.812352320543
 H    0.076957590940   -1.038049580709   -1.902647679457
 H    0.982957590940   -1.825049580709   -0.603647679457
 H   -0.783042409060   -1.629049580709   -0.467647679457
 H   -0.834660409060    2.097416419291   -0.258882679457
