19
0 1 
 C    2.112346242559   -0.185039108877   -1.978841404231
 C    0.231346242559    0.148960891123   -0.263841404231
 C    1.149346242559   -0.705039108877   -0.950841404231
 C   -0.532653757441   -0.604039108877    0.648158595769
 C    0.928346242559   -1.949039108877   -0.455841404231
 C    0.004346242559    1.536960891123   -0.346841404231
 C   -0.928653757441    2.230960891123    0.396158595769
 C   -1.673653757441    1.476960891123    1.284158595769
 C   -1.452653757441    0.129960891123    1.347158595769
 N   -0.085653757441   -1.879039108877    0.504158595769
 H    0.606346242559    2.099960891123   -1.047841404231
 H   -1.067653757441    3.300960891123    0.295158595769
 H   -2.429653757441    1.944960891123    1.905158595769
 H    2.639346242559    0.648960891123   -1.512841404231
 H    1.554346242559    0.218960891123   -2.823841404231
 H    1.449346242559   -2.856039108877   -0.746841404231
 H   -0.433653757441   -2.684039108877    1.014158595769
 H   -2.063653757441   -0.425039108877    2.046158595769
 H    2.862856242559   -0.914579108877   -2.317221404231
