16
1 1 
 C    1.468272388171    0.422634036097    0.610791961174
 C    1.059712388171    0.339444036097    2.067371961174
 C   -0.590047611829   -0.184745963903   -0.655478038826
 N    0.652572388171   -0.435275963903   -0.253938038826
 N   -1.250137611829    0.916804036097   -0.283768038826
 N   -1.213797611829   -1.060285963903   -1.450408038826
 H    1.439562388171    1.449414036097    0.232211961174
 H    2.485392388171    0.059464036097    0.500071961174
 H    0.005562388171    0.592114036097    2.209001961174
 H    1.662002388171    1.023864036097    2.672741961174
 H    1.160182388171   -1.199235963903   -0.687838038826
 H   -0.785697611829    1.616944036097    0.281781961174
 H   -2.188697611829    1.111694036097   -0.592598038826
 H   -0.742777611829   -1.907185963903   -1.745868038826
 H   -2.154127611829   -0.904055963903   -1.777888038826
 H    1.211622388171   -0.675745963903    2.448161961174
