8
0 1 
 C   -0.329425537482    0.659889664193    0.201348162584
 C    0.329574462518   -0.663110335807   -0.200651837416
 H    0.224574462518    1.104889664193    1.028348162584
 H   -0.325425537482    1.345889664193   -0.643651837416
 H   -1.359425537482    0.484889664193    0.509348162584
 H   -0.228425537482   -1.099110335807   -1.030651837416
 H    0.329574462518   -1.363420335807    0.647618162584
 H    1.357354462518   -0.434790335807   -0.519301837416
