15
0 1 
 C   -0.041431131046    1.555174042745   -1.891156364066
 C   -1.157431131046   -0.555825957255    1.084843635934
 C   -1.195431131046    0.348174042745   -0.024156364066
 C    0.047568868954   -1.191825957255    1.449843635934
 C   -0.024431131046    0.616174042745   -0.728156364066
 C    1.220568868954   -0.924825957255    0.721843635934
 C    1.160568868954   -0.041825957255   -0.366156364066
 H   -2.063431131046   -0.757825957255    1.636843635934
 H   -2.125431131046    0.827174042745   -0.301156364066
 H    0.072568868954   -1.878825957255    2.284843635934
 H    2.152568868954   -1.406825957255    0.988843635934
 H   -1.050431131046    1.573174042745   -2.305156364066
 H    0.593568868954    1.223174042745   -2.687156364066
 H    2.067568868954    0.150174042745   -0.921156364066
 H    0.234162968954    2.589014042745   -1.635766364066
