11
0 1 
 C   -0.234041148397   -0.311309662560    0.407387532553
 C   -0.977041148397    0.149690337440   -0.853612467447
 C    1.204958851603    0.139690337440    0.471387532553
 H   -0.769041148397    0.083690337440    1.273387532553
 H   -0.276041148397   -1.402309662560    0.453387532553
 H   -0.987041148397    1.240690337440   -0.881612467447
 H   -2.008041148397   -0.194309662560   -0.766612467447
 H    1.735958851603   -0.242309662560   -0.407612467447
 H    1.236958851603    1.233690337440    0.435387532553
 H   -0.556081148397   -0.237505662560   -1.793226467447
 H    1.696238851603   -0.220531662560    1.387294532553
