8
0 1 
 C    0.499479937268    0.578998836598   -0.021027900927
 C   -0.494520062732   -0.583001163402    0.021972099073
 H    0.725479937268    0.853998836598   -1.047027900927
 H    0.064479937268    1.446998836598    0.472972099073
 H    1.419479937268    0.303998836598    0.495972099073
 H   -1.345520062732   -0.315001163402   -0.603027900927
 H   -0.033775062732   -1.503051163402   -0.366893900927
 H   -0.889201062732   -0.739289163402    1.036763099073
