12
0 1 
 C   -0.248066591100    1.142101863696   -1.874079647181
 C    0.936933408900    0.491101863696    0.323920352819
 C   -0.039066591100    0.357101863696   -0.614079647181
 C   -0.453066591100   -1.057898136304    1.007920352819
 N    0.671933408900   -0.412898136304    1.320920352819
 N   -0.928066591100   -0.590898136304   -0.149079647181
 H    1.767933408900    1.178101863696    0.284920352819
 H    1.251933408900   -0.602898136304    2.130920352819
 H    0.540933408900    1.889101863696   -1.933079647181
 H   -1.196066591100    1.675101863696   -1.795079647181
 H   -0.906066591100   -1.844898136304    1.599920352819
 H   -0.242336591100    0.550571863696   -2.801479647181
