8
0 1 
 C   -0.386927198263    0.621368896150    0.220605685007
 C    0.384072801737   -0.625631103850   -0.215394314993
 H    0.265072801737    1.294368896150    0.775605685007
 H   -0.752927198263    1.157368896150   -0.655394314993
 H   -1.225927198263    0.335368896150    0.846605685007
 H    1.280072801737   -0.273631103850   -0.728394314993
 H    0.678732801737   -1.257154103850    0.635694685007
 H   -0.211037198263   -1.205572103850   -0.936168314993
