9
0 1 
 C   -0.315624567638   -0.448092151107   -0.043959841377
 C   -0.865624567638    0.966907848893   -0.276959841377
 O    1.075375432362   -0.433092151107    0.272040158623
 H   -0.844624567638   -0.906092151107    0.792040158623
 H   -0.485624567638   -1.058092151107   -0.933959841377
 H   -0.566624567638    1.595907848893    0.563040158623
 H    1.319375432362   -1.298092151107    0.635040158623
 H   -1.962742567638    0.949567848893   -0.354629841377
 H   -0.461816567638    1.412837848893   -1.197869841377
