8
0 1 
 C    0.456222610349    0.213501191197   -0.571959006327
 C   -0.456777389651   -0.210498808803    0.573040993673
 H    1.270222610349    0.830501191197   -0.191959006327
 H    0.872222610349   -0.671498808803   -1.054959006327
 H   -0.113777389651    0.768501191197   -1.315959006327
 H   -1.326777389651   -0.721498808803    0.161040993673
 H   -0.785457389651    0.660728191197    1.158642993673
 H    0.090172610349   -0.902481808803    1.230309993673
