11
0 1 
 C    0.570161034578   -0.017141810589   -0.022134669152
 C   -0.331838965422   -0.997141810589   -0.772134669152
 C   -0.199838965422    1.007858189411    0.800865330848
 H    1.261161034578   -0.552141810589    0.623865330848
 H    1.149161034578    0.516858189411   -0.773134669152
 H   -1.027838965422   -0.440141810589   -1.398134669152
 H   -0.805838965422    1.615858189411    0.130865330848
 H   -0.892838965422    0.515858189411    1.465865330848
 H   -0.898958965422   -1.616362810589   -0.061544669152
 H    0.280401034578   -1.630987810589   -1.430474669152
 H    0.476541034578    1.667566189411    1.364155330848
