15
0 1 
 C    1.523624011513    0.558290955874   -1.816679471800
 C   -0.246375988487   -0.878709044126   -0.809679471800
 C    0.572624011513    0.232290955874   -0.716679471800
 C   -1.117375988487   -1.196709044126    0.244320528200
 C   -1.141375988487   -0.430709044126    1.383320528200
 C    0.535624011513    0.991290955874    0.448320528200
 C   -0.320375988487    0.657290955874    1.494320528200
 H   -0.225375988487   -1.499709044126   -1.694679471800
 H   -1.770375988487   -2.052709044126    0.166320528200
 H    1.772624011513    1.620290955874   -1.776679471800
 H    1.036624011513    0.364290955874   -2.773679471800
 H   -1.797375988487   -0.707709044126    2.190320528200
 H    1.181624011513    1.853290955874    0.547320528200
 H   -0.338375988487    1.257290955874    2.391320528200
 H    2.446174011513   -0.037716044126   -1.755995471800
