8
0 1 
 C    0.607562314686    0.259613190724    0.377616405915
 C   -0.608437685314   -0.267386809276   -0.380383594085
 H    1.406562314686   -0.466386809276    0.476616405915
 H    0.994562314686    1.134613190724   -0.145383594085
 H    0.302562314686    0.573613190724    1.376616405915
 H   -0.309437685314   -0.582386809276   -1.381383594085
 H   -1.330437685314    0.544613190724   -0.460383594085
 H   -1.053388685314   -1.111506809276    0.166866405915
