15
0 1 
 C   -1.137574354448    2.165698750770    0.049685834945
 C    1.385425645552   -0.601301249230    0.710685834945
 C    0.742425645552    0.631698750770    0.744685834945
 C    0.853425645552   -1.640301249230   -0.038314165055
 C   -0.442574354448    0.828698750770    0.032685834945
 C   -0.311574354448   -1.449301249230   -0.759314165055
 C   -0.953574354448   -0.214301249230   -0.732314165055
 H    2.310425645552   -0.738301249230    1.239685834945
 H    1.172425645552    1.441698750770    1.317685834945
 H    1.352425645552   -2.599301249230   -0.070314165055
 H   -0.717574354448   -2.261301249230   -1.344314165055
 H   -1.982574354448    2.160698750770   -0.641314165055
 H   -0.422574354448    2.897698750770   -0.325314165055
 H   -1.852574354448   -0.069301249230   -1.312314165055
 H   -1.479064354448    2.491408750770    1.043315834945
