8
0 1 
 C   -0.692627368296   -0.309340006211   -0.083103946586
 C    0.696372631704    0.309659993789    0.076896053414
 H   -0.597627368296   -1.351340006211   -0.383103946586
 H   -1.217627368296   -0.257340006211    0.870896053414
 H   -1.286627368296    0.241659993789   -0.813103946586
 H    0.586372631704    1.360659993789    0.338896053414
 H    1.279832631704    0.212299993789   -0.850523946586
 H    1.191082631704   -0.209750006211    0.910856053414
