6
0 1 
 C    0.355578567240   -0.183801766483    0.611986896385
 O   -0.343421432760    0.222198233517   -0.555013103615
 H   -0.337421432760   -0.513801766483   -1.199013103615
 H    0.193578567240   -1.246801766483    0.784986896385
 H    1.426718567240    0.032292233517    0.485636896385
 H   -0.066341432760    0.390360233517    1.450026896385
