11
0 1 
 C    0.385059056255    0.222256128346    0.375809119159
 C   -0.957940943745   -0.330743871654    0.769809119159
 C    0.602059056255    0.121256128346   -1.118190880841
 H    0.438059056255    1.264256128346    0.669809119159
 H    1.187059056255   -0.298743871654    0.892809119159
 H   -1.014940943745   -1.386743871654    0.497809119159
 H   -1.724940943745    0.203256128346    0.205809119159
 H    0.558059056255   -0.929743871654   -1.411190880841
 H   -0.194940943745    0.669256128346   -1.625190880841
 H   -1.175500943745   -0.214043871654    1.841746319159
 H    1.579739056255    0.540476128346   -1.398173880841
