9
0 1 
 C   -0.279980392904   -1.383577508448    0.332345384546
 C   -0.029980392904    0.075422491552    0.019345384546
 O   -0.571980392904    0.977422491552    0.654345384546
 N    0.832019607096    0.319422491552   -0.943654615454
 H   -0.392980392904   -1.929577508448   -0.605654615454
 H   -1.207980392904   -1.478577508448    0.897345384546
 H    1.019019607096    1.281422491552   -1.187654615454
 H    1.238019607096   -0.434577508448   -1.474654615454
 H    0.551943607096   -1.813284508448    0.909628384546
