18
0 1 
 C    1.415819291798    0.319395403338    1.445228812746
 C    0.847819291798    0.039395403338    2.802228812746
 C    0.441819291798    0.114395403338    0.308228812746
 C   -0.332180708202    1.179395403338   -0.169771187254
 C    0.339819291798   -1.119604596662   -0.308771187254
 C   -1.176180708202    0.983395403338   -1.265771187254
 C   -0.530180708202   -1.311604596662   -1.412771187254
 C   -1.232180708202   -0.230604596662   -1.912771187254
 H    1.757819291798    1.355395403338    1.417228812746
 H    2.286819291798   -0.317604596662    1.296228812746
 H   -0.058180708202    0.627395403338    2.948228812746
 H   -0.286180708202    2.137395403338    0.311228812746
 H    0.934819291798   -1.948604596662    0.047228812746
 H   -1.748180708202    1.816395403338   -1.646771187254
 H   -0.591180708202   -2.261604596662   -1.912771187254
 H   -1.866180708202   -0.350604596662   -2.780771187254
 H    1.626009291798    0.283425403338    3.540378812746
 H    0.628779291798   -1.033954596662    2.901918812746
