8
0 1 
 C    0.006193296938    0.321109664974   -0.688201250049
 C   -0.006806703062   -0.317890335026    0.687798749951
 H    0.829193296938    1.026109664974   -0.761201250049
 H    0.137193296938   -0.445890335026   -1.450201250049
 H   -0.935806703062    0.838109664974   -0.868201250049
 H    0.956193296938   -0.792890335026    0.865798749951
 H   -0.191504803062    0.426649664974    1.476178749951
 H   -0.787964663062   -1.090420335026    0.742418749951
