15
0 1 
 C    1.033333655553    0.047824890622   -2.205822782218
 C    0.144333655553    0.943824890622    1.358177217782
 C   -0.785666344447   -0.031175109378    1.669177217782
 C    0.734333655553    0.969824890622    0.104177217782
 C    0.404333655553    0.010824890622   -0.842822782218
 C   -1.126666344447   -0.987175109378    0.724177217782
 C   -0.537666344447   -0.960175109378   -0.528822782218
 H    0.410333655553    1.685824890622    2.097177217782
 H   -1.264666344447   -0.016175109378    2.636177217782
 H    1.467333655553    1.722824890622   -0.125822782218
 H   -1.856666344447   -1.748175109378    0.964177217782
 H    1.118333655553   -0.969175109378   -2.593822782218
 H    2.048333655553    0.438824890622   -2.116822782218
 H   -0.805666344447   -1.713175109378   -1.256822782218
 H    0.474183655553    0.673354890622   -2.917202782218
