8
0 1 
 C   -0.335084705157   -0.686784343334   -0.040035570478
 C    0.326915294843    0.690215656666    0.042964429522
 H   -1.259084705157   -0.711784343334    0.539964429522
 H   -0.566084705157   -0.928784343334   -1.078035570478
 H    0.344915294843   -1.450784343334    0.340964429522
 H    1.217915294843    0.659215656666   -0.580035570478
 H    0.675445294843    0.887815656666    1.067404429522
 H   -0.315834705157    1.503465656666   -0.325135570478
