8
0 1 
 C   -0.586162235335   -0.424182802128   -0.237817107804
 C    0.586837764665    0.423817197872    0.242182892196
 H   -1.483162235335   -0.204182802128    0.340182892196
 H   -0.783162235335   -0.199182802128   -1.281817107804
 H   -0.349162235335   -1.484182802128   -0.171817107804
 H    1.504837764665    0.067817197872   -0.223817107804
 H    0.668717764665    0.351277197872    1.336732892196
 H    0.433887764665    1.472807197872   -0.051447107804
