11
0 1 
 C    0.144373784223    0.075059747717    0.542183722894
 C   -1.181626215777   -0.554940252283    0.114183722894
 C    1.044373784223    0.487059747717   -0.629816277106
 H   -0.057626215777    0.942059747717    1.166183722894
 H    0.681373784223   -0.646940252283    1.155183722894
 H   -1.544626215777   -1.157940252283    0.946183722894
 H   -1.025626215777   -1.237940252283   -0.717816277106
 H    0.595373784223    1.298059747717   -1.197816277106
 H    1.975373784223    0.895059747717   -0.230816277106
 H   -1.975669215777    0.168029747717   -0.124173277106
 H    1.266633784223   -0.345870252283   -1.313069277106
