8
0 1 
 C   -0.638821329245   -0.387995974999   -0.187415033192
 C    0.638178670755    0.388004025001    0.188584966809
 H   -1.462821329245    0.312004025001   -0.337415033191
 H   -0.472821329245   -0.950995974999   -1.106415033192
 H   -0.899821329245   -1.081995974999    0.607584966808
 H    0.892178670755    1.074004025001   -0.622415033191
 H    1.459178670755   -0.313995974999    0.328584966808
 H    0.491758670755    0.960884025001    1.116144966809
