11
0 1 
 C   -0.380918010302    0.358635891424   -0.187810056651
 C    0.906081989698    0.066635891424   -0.960810056651
 C   -0.532918010302   -0.391364108576    1.138189943349
 H   -0.450918010302    1.428635891424   -0.015810056651
 H   -1.223918010302    0.077635891424   -0.820810056651
 H    0.904081989698   -1.007364108576   -1.159810056651
 H   -1.552918010302   -0.262364108576    1.498189943349
 H   -0.375918010302   -1.455364108576    0.960189943349
 H    1.781961989698    0.277295891424   -0.329574056651
 H    0.855701989698    0.581235891424   -1.931711356651
 H    0.154251989698   -0.043444108576    1.923525943349
