9
0 1 
 C   -0.078586809281   -0.548172854465   -0.012769463018
 C   -0.416586809281    0.384827145535   -1.175769463018
 O    0.497413190719    0.109827145535    1.085230536982
 H   -0.987586809281   -1.056172854465    0.311230536982
 H    0.615413190719   -1.306172854465   -0.368769463018
 H   -0.863586809281   -0.189172854465   -1.975769463018
 H   -0.120586809281    0.767827145535    1.435230536982
 H    0.503693190719    0.828317145535   -1.583689463018
 H   -1.145706809281    1.157267145535   -0.889899463018
