9
0 1 
 C   -0.333646885138   -0.347765644015    0.708998719951
 C    1.047353114862   -0.485765644015    1.352998719951
 S   -0.291646885138    0.382234355985   -0.941001280049
 H   -0.801646885138   -1.333765644015    0.652998719951
 H   -0.958646885138    0.287234355985    1.339998719951
 H    1.550353114862    0.481234355985    1.270998719951
 H   -1.600646885138    0.298234355985   -1.207001280049
 H    1.635673114862   -1.244325644015    0.815904719951
 H    0.929093114862   -0.689835644015    2.427415719951
