8
0 1 
 C    0.531879351531    0.343935051825    0.437121633605
 C   -0.526120648469   -0.346064948175   -0.434878366395
 H    1.419879351531    0.559935051825   -0.156878366395
 H    0.133879351531    1.277935051825    0.836121633605
 H    0.799879351531   -0.313064948175    1.263121633605
 H   -1.417120648469   -0.544064948175    0.158121633605
 H   -0.183245648469   -1.291114948175   -0.881328366395
 H   -0.821839648469    0.335735051825   -1.245868366395
