8
0 1 
 C    0.593959856362    0.478388412594   -0.038384755616
 C   -0.593040143638   -0.477611587406    0.043615244384
 H    1.415959856362    0.112388412594    0.579615244384
 H    0.935959856362    0.553388412594   -1.070384755616
 H    0.299959856362    1.474388412594    0.292615244384
 H   -1.442040143638   -0.028611587406   -0.465384755616
 H   -0.883110143638   -0.708941587406    1.079155244384
 H   -0.337680143638   -1.411861587406   -0.477894755616
