8
0 1 
 C   -0.644675193914   -0.266201250049   -0.353391995807
 C    0.643324806086    0.265798749951    0.353608004193
 H   -0.378675193914   -0.740201250049   -1.302391995807
 H   -1.145675193914   -1.000201250049    0.280608004193
 H   -1.334675193914    0.555798749951   -0.552391995807
 H    0.369324806086    0.734798749951    1.298608004193
 H    1.155824806086    1.009198749951   -0.274681995807
 H    1.349954806086   -0.554601250049    0.547678004193
