9
0 1 
 C    0.007854310521    0.558694407867   -0.074688532461
 C   -0.923145689479   -0.368305592133   -0.834688532461
 O    0.812854310521   -0.206305592133    0.806311467539
 H    0.629854310521    1.115694407867   -0.775688532461
 H   -0.583145689479    1.271694407867    0.501311467539
 H   -0.307145689479   -1.090305592133   -1.367688532461
 H    1.333854310521    0.428694407867    1.322311467539
 H   -1.541292689479    0.206714407867   -1.539848532461
 H   -1.534494689479   -0.925199592133   -0.109348532461
