6
0 1 
 C   -0.167470888900    0.415337553231    0.575683200389
 O    0.201529111100   -0.358662446769   -0.557316799611
 H   -0.418470888900   -1.094662446769   -0.627316799611
 H   -0.093470888900   -0.200662446769    1.472683200389
 H    0.511723611100    1.274787553231    0.675904200389
 H   -1.204147888900    0.767417553231    0.469190200389
