11
0 1 
 C    0.409585426691    0.392234293514   -0.086707375821
 C   -0.826414573309    0.632234293514    0.791292624179
 C    0.448585426691   -1.003765706486   -0.702707375821
 H    0.389585426691    1.115234293514   -0.902707375821
 H    1.317585426691    0.568234293514    0.492292624179
 H   -0.985414573309    1.711234293514    0.857292624179
 H    0.368585426691   -1.732765706486    0.092292624179
 H   -0.406414573309   -1.107765706486   -1.366707375821
 H   -0.688484573309    0.240924293514    1.810043624179
 H   -1.712894573309    0.213884293514    0.292153624179
 H    1.339335426691   -1.255485706486   -1.297019875821
