8
0 1 
 C    0.235230128495   -0.261102760199   -0.675299191739
 C   -0.240769871505    0.262897239801    0.674700808261
 H   -0.500769871505   -0.039102760199   -1.448299191739
 H    1.182230128495    0.210897239801   -0.936299191739
 H    0.390230128495   -1.339102760199   -0.619299191739
 H    0.550230128495    0.075897239801    1.401700808261
 H   -1.144349871505   -0.277962760199    0.992520808261
 H   -0.411609871505    1.348007239801    0.616800808261
