8
0 1 
 C   -0.054585380801   -0.009463774991    0.764003795955
 C    0.051414619199    0.009536225009   -0.762996204045
 H    0.549414619199   -0.816463774991    1.181003795955
 H    0.309414619199    0.935536225009    1.166003795955
 H   -1.093585380801   -0.147463774991    1.059003795955
 H    1.097414619199    0.001536225009   -1.028996204045
 H   -0.401027380801   -0.885953774991   -1.213996204045
 H   -0.423877380801    0.911946225009   -1.175016204045
