8
0 1 
 C   -0.103818007683   -0.125138968905   -0.773721972122
 C    0.109181992317    0.123861031095    0.780278027878
 H    0.663181992317   -0.795138968905   -1.159721972122
 H   -1.083818007683   -0.572138968905   -0.929721972122
 H   -0.043818007683    0.805861031095   -1.328721972122
 H   -0.830818007683    0.480861031095    1.201278027878
 H    0.852921992317    0.927531031095    0.884979027878
 H    0.378481992317   -0.831758968905    1.253847027878
