6
0 1 
 C    0.160320028775   -0.598798161344   -0.373173315034
 O   -0.140679971225    0.539201838656    0.405826684966
 H   -0.404679971225    1.254201838656   -0.189173315034
 H    1.045320028775   -0.383798161344   -0.974173315034
 H   -0.667679971225   -0.794798161344   -1.057173315034
 H    0.350830028775   -1.503342861344    0.223066684966
