16
0 1 
 C    1.126136429134    1.413654489377   -2.317882255570
 C   -0.750863570866    0.701654489377    0.900117744430
 C   -0.524863570866   -0.655345510623    1.089117744430
 C   -0.241863570866    1.367654489377   -0.202882255570
 C    0.514136429134    0.686654489377   -1.146882255570
 C    0.251136429134   -1.347345510623    0.184117744430
 C    0.757136429134   -0.679345510623   -0.946882255570
 O   -1.052863570866   -1.281345510623    2.179117744430
 H   -1.326863570866    1.243654489377    1.637117744430
 H   -0.386863570866    2.434654489377   -0.270882255570
 H    0.460136429134   -2.397345510623    0.331117744430
 H   -0.778863570866   -2.201345510623    2.240117744430
 H    1.844136429134    0.753654489377   -2.793882255570
 H    1.669136429134    2.273654489377   -1.930882255570
 H    1.365136429134   -1.224345510623   -1.655882255570
 H    0.397666429134    1.740924489377   -3.074342255570
