16
0 1 
 C    1.955382378008    2.032827849348    0.837581799672
 C   -0.922617621992   -0.948172150652   -0.376418200328
 C    0.409382378008   -1.057172150652   -0.791418200328
 C   -1.323617621992    0.119827849348    0.408581799672
 C    1.348382378008   -0.101172150652   -0.385418200328
 C   -0.375617621992    1.080827849348    0.806581799672
 C    0.965382378008    0.955827849348    0.443581799672
 O   -1.865617621992   -1.851172150652   -0.787418200328
 H   -1.554617621992   -2.360172150652   -1.565418200328
 H    0.713382378008   -1.875172150652   -1.428418200328
 H   -2.356617621992    0.209827849348    0.708581799672
 H    2.376382378008   -0.192172150652   -0.707418200328
 H   -0.690617621992    1.919827849348    1.405581799672
 H    2.849382378008    1.552827849348    1.233581799672
 H    1.534382378008    2.652827849348    1.629581799672
 H    2.248532378008    2.672167849348   -0.008178200328
