12
0 1 
 C   -1.005048526176   -0.368028843134    0.285007433007
 C   -0.598048526176   -1.840028843134    0.424007433007
 C    0.153951473824    0.516971156866   -0.165992566993
 O    0.125951473824    1.170971156866   -1.213992566993
 N    1.206951473824    0.525971156866    0.623007433007
 H   -1.840048526176   -0.262028843134   -0.406992566993
 H   -1.345048526176   -0.016028843134    1.259007433007
 H   -1.456048526176   -2.400028843134    0.797007433007
 H    0.193951473824   -1.923028843134    1.168007433007
 H    1.999951473824    1.093971156866    0.360007433007
 H    1.203951473824    0.024971156866    1.500007433007
 H   -0.270728526176   -2.274538843134   -0.532058566993
