13
1 1 
 C   -1.289895317873   -1.408116448258   -0.519320257289
 C    0.314104682127    0.350883551742    0.114679742711
 N   -0.361895317873   -0.309116448258   -0.813320257289
 N    0.174104682127    0.035883551742    1.388679742711
 N    1.133104682127    1.324883551742   -0.223320257289
 H   -0.147895317873   -0.085116448258   -1.783320257289
 H   -2.096895317873   -1.041116448258    0.120679742711
 H   -0.749895317873   -2.196116448258    0.011679742711
 H   -0.491895317873   -0.670116448258    1.655679742711
 H    0.717104682127    0.495883551742    2.100679742711
 H    1.254104682127    1.566883551742   -1.210320257289
 H    1.738104682127    1.749883551742    0.455679742711
 H   -1.738685317873   -1.843896448258   -1.424129257289
