22
0 1 
 C   -0.311200953158   -0.850666241536   -2.479930254538
 C    0.684799046842   -1.998666241536   -2.667930254538
 C   -0.632200953158   -0.548666241536   -1.035930254538
 C   -1.741200953158   -0.921666241536   -0.380930254538
 C    0.154799046842    0.186333758464   -0.092930254538
 C   -0.557200953158    0.222333758464    1.117069745462
 C    1.365799046842    0.875333758464   -0.175930254538
 C   -0.103200953158    0.893333758464    2.232069745462
 C    1.843799046842    1.501333758464    0.943069745462
 C    1.113799046842    1.513333758464    2.126069745462
 N   -1.706200953158   -0.464666241536    0.901069745462
 H    0.068799046842    0.055333758464   -2.952930254538
 H   -1.241200953158   -1.086666241536   -2.988930254538
 H    0.606799046842   -2.323666241536   -3.707930254538
 H   -2.562200953158   -1.481666241536   -0.820930254538
 H   -2.475200953158   -0.565666241536    1.554069745462
 H    1.915799046842    0.900333758464   -1.102930254538
 H   -0.692200953158    0.979333758464    3.131069745462
 H    2.792799046842    2.015333758464    0.900069745462
 H    1.509799046842    2.048333758464    2.979069745462
 H    0.422550046842   -2.842687241536   -2.013060254538
 H    1.714311146842   -1.628855241536   -2.552409854538
