15
0 1 
 C   -0.586270642940   -1.011827847752    2.141316477738
 C   -1.202270642940    0.202172152248    0.036316477738
 C   -0.222270642940   -0.390827847752    0.822316477738
 C   -0.873270642940    0.778172152248   -1.182683522262
 C    0.441729357060    0.766172152248   -1.623683522262
 C    1.092729357060   -0.398827847752    0.375316477738
 C    1.425729357060    0.177172152248   -0.843683522262
 H   -2.229270642940    0.219172152248    0.376316477738
 H   -1.644270642940    1.238172152248   -1.782683522262
 H   -1.302270642940   -0.351827847752    2.631316477738
 H    0.294729357060   -1.061827847752    2.783316477738
 H    0.695729357060    1.210172152248   -2.572683522262
 H    1.865729357060   -0.859827847752    0.975316477738
 H    2.451729357060    0.161172152248   -1.186683522262
 H   -1.038280642940   -2.010279847752    2.047598477738
