8
0 1 
 C    0.608403399977   -0.443748102022    0.064053756748
 C   -0.608596600023    0.444251897978   -0.059946243252
 H    0.393403399977   -1.287748102022    0.718053756748
 H    0.884403399977   -0.824748102022   -0.919946243252
 H    1.448403399977    0.122251897978    0.460053756748
 H   -0.405596600023    1.194251897978   -0.823946243252
 H   -0.843356600023    0.946901897978    0.889913756748
 H   -1.474956600023   -0.156908102022   -0.373036243252
