22
0 1 
 C    2.507595658788    0.376491502318    0.675724341907
 C    2.604595658788    1.652491502318    1.517724341907
 C    1.283595658788    0.320491502318   -0.179275658093
 C    1.156595658788    0.776491502318   -1.445275658093
 C    0.007595658788   -0.229508497682    0.182724341907
 C   -0.856404341212   -0.070508497682   -0.928275658093
 C   -0.498404341212   -0.831508497682    1.340724341907
 C   -2.173404341212   -0.498508497682   -0.912275658093
 C   -1.807404341212   -1.277508497682    1.350724341907
 C   -2.632404341212   -1.113508497682    0.234724341907
 N   -0.129404341212    0.542491502318   -1.908275658093
 H    3.383595658788    0.318491502318    0.031724341907
 H    2.510595658788   -0.494508497682    1.331724341907
 H    1.704595658788    1.725491502318    2.131724341907
 H    1.946595658788    1.245491502318   -2.023275658093
 H   -0.455404341212    0.784491502318   -2.837275658093
 H    0.130595658788   -0.943508497682    2.212724341907
 H   -2.813404341212   -0.364508497682   -1.773275658093
 H   -2.204404341212   -1.758508497682    2.236724341907
 H   -3.654404341212   -1.467508497682    0.274724341907
 H    2.653225658788    2.521031502318    0.844474341907
 H    3.454905658788    1.553601502318    2.208514341907
