11
1 1 
 C    0.064085535709   -0.020122877134    0.590725281287
 C    0.250085535709   -1.280122877134   -0.247274718713
 N   -0.273914464291    1.146877122866   -0.269274718713
 H   -0.729914464291   -0.190122877134    1.322725281287
 H    0.990085535709    0.176877122866    1.140725281287
 H    1.029085535709   -1.100122877134   -0.991274718713
 H   -0.683914464291   -1.512122877134   -0.765274718713
 H   -1.139914464291    0.991877122866   -0.770274718713
 H   -0.394914464291    1.983877122866    0.287725281287
 H    0.453085535709    1.334877122866   -0.948274718713
 H    0.541483635709   -2.138448877134    0.375913281287
