14
0 1 
 C   -0.119296844347    0.344513290235   -0.016730776464
 C    1.396703155653    0.385513290235    0.326269223536
 C   -0.354296844347   -0.298486709765   -1.382730776464
 C   -0.926296844347   -0.385486709765    1.066269223536
 H   -0.484296844347    1.369513290235   -0.068730776464
 H    1.490703155653    0.434513290235    1.408269223536
 H   -0.141296844347   -1.362486709765   -1.367730776464
 H   -1.393296844347   -0.148486709765   -1.680730776464
 H    0.284703155653    0.148513290235   -2.135730776464
 H   -1.955296844347   -0.460486709765    0.717269223536
 H   -0.551296844347   -1.380486709765    1.235269223536
 H    1.862393155653    1.280273290235   -0.112510776464
 H    1.862723155653   -0.573816709765    0.056999223536
 H   -0.937086844347    0.144603290235    2.030059223536
