11
0 1 
 C    0.303315234355    0.077283197717    0.431110491477
 C   -0.981684765645   -0.772716802283    0.494110491477
 C    0.686315234355    0.705283197717   -0.908889508523
 H    0.236315234355    0.872283197717    1.173110491477
 H    1.132315234355   -0.569716802283    0.720110491477
 H   -1.041684765645   -1.403716802283   -0.395889508523
 H    0.775315234355   -0.080716802283   -1.657889508523
 H   -1.857274765645   -0.113781802283    0.589740491477
 H   -0.930214765645   -1.402639802283    1.394410491477
 H   -0.086124765645    1.415229197717   -1.239519508523
 H    1.676745234355    1.165782197717   -0.778529508523
