15
0 1 
 C   -0.155626690563   -2.094320782463   -1.312779338699
 C   -0.025626690563   -0.808320782463   -0.500779338699
 C    0.700373309437    0.292679217537   -0.985779338699
 C   -0.680626690563   -0.692320782463    0.725220661301
 C    0.751373309437    1.496679217537   -0.233779338699
 C   -0.629626690563    0.490679217537    1.473220661301
 C    0.077373309437    1.576679217537    0.999220661301
 H   -0.323626690563   -1.794320782463   -2.344779338699
 H   -1.045626690563   -2.616320782463   -0.953779338699
 H    1.214373309437    0.215679217537   -1.935779338699
 H   -1.239626690563   -1.539320782463    1.099220661301
 H    1.292373309437    2.360679217537   -0.591779338699
 H   -1.139626690563    0.565679217537    2.422220661301
 H    0.104373309437    2.485679217537    1.583220661301
 H    0.689533309437   -2.794420782463   -1.237749338699
