8
0 1 
 C    0.122392074383    0.582522914710   -0.505654872469
 C   -0.120607925617   -0.581477085290    0.509345127531
 H    0.432392074383    1.484522914710    0.023345127531
 H    0.902392074383    0.303522914710   -1.217654872469
 H   -0.798607925617    0.793522914710   -1.055654872469
 H    0.796392074383   -0.832477085290    1.046345127531
 H   -0.902704925617   -0.307317085290    1.232645127531
 H   -0.451106925617   -1.454227085290   -0.072964872469
