13
1 1 
 C   -1.601310251680    0.075070800295    1.198051132556
 C    0.382689748320   -0.017929199705   -0.304948867444
 N   -0.791310251680   -0.492929199705    0.103051132556
 N    0.934689748320    1.003070800295    0.314051132556
 N    1.025689748320   -0.597929199705   -1.307948867444
 H   -1.184310251680   -1.279929199705   -0.394948867444
 H    0.468689748320    1.424070800295    1.103051132556
 H    1.822689748320    1.363070800295    0.003051132556
 H    0.630689748320   -1.408929199705   -1.764948867444
 H    1.917689748320   -0.242929199705   -1.623948867444
 H   -1.789310251680    1.131070800295    0.983051132556
 H   -1.037310251680    0.001070800295    2.128051132556
 H   -2.562380251680   -0.448119199705    1.310361132556
