19
0 1 
 C   -0.524272958059    1.226580585873   -2.686979577326
 C   -1.164272958059    1.785580585873   -0.298979577326
 C   -0.590272958059    0.966580585873   -1.211979577326
 C   -0.168272958059    0.181580585873    0.924020422674
 C    0.049727041941   -0.099419414127   -0.453979577326
 C    0.320727041941   -0.637419414127    1.934020422674
 C    0.799727041941   -1.247419414127   -0.792979577326
 C    1.045727041941   -1.766419414127    1.579020422674
 C    1.287727041941   -2.080419414127    0.234020422674
 N   -0.913272958059    1.337580585873    0.983020422674
 H   -1.690272958059    2.693580585873   -0.554979577326
 H   -1.114272958059    1.875580585873    1.829020422674
 H    0.500727041941    1.210580585873   -3.027979577326
 H   -0.879272958059    2.247580585873   -2.836979577326
 H    0.112727041941   -0.410419414127    2.970020422674
 H    1.008727041941   -1.484419414127   -1.822979577326
 H    1.426727041941   -2.418419414127    2.352020422674
 H    1.857727041941   -2.962419414127   -0.021979577326
 H   -1.113562958059    0.557170585873   -3.330896577326
