8
0 1 
 C   -0.499769316664    0.530553570865    0.224804386824
 C    0.503230683336   -0.535446429135   -0.213195613176
 H   -0.443769316664    1.331553570865   -0.498195613176
 H   -1.530769316664    0.186553570865    0.158804386824
 H   -0.273769316664    0.912553570865    1.216804386824
 H    0.209230683336   -0.869446429135   -1.209195613176
 H    0.483942683336   -1.396981429135    0.470464386824
 H    1.513920683336   -0.105974429135   -0.276905613176
