10
-1 1 
 C   -0.221406014091   -0.749587058956   -0.754961301856
 C   -1.687406014091   -0.379587058956   -0.959961301856
 C    0.460593985909    0.136412941044    0.285038698144
 O   -0.040406014091    0.211412941044    1.428038698144
 O    1.502593985909    0.747412941044   -0.034961301856
 H   -0.168406014091   -1.786587058956   -0.418961301856
 H    0.296593985909   -0.694587058956   -1.705961301856
 H   -2.192406014091   -0.629587058956   -0.043961301856
 H   -2.121006014091   -0.986627058956   -1.768351301856
 H   -1.777076014091    0.700762941044   -1.146531301856
