7
-1 1 
 C    1.208927250286    0.181783480647   -0.737772674532
 C   -0.070072749714    0.018783480647    0.033227325468
 O   -0.269072749714    0.643783480647    1.099227325468
 O   -0.872072749714   -0.829216519353   -0.395772674532
 H    1.115927250286   -0.329216519353   -1.699772674532
 H    1.945927250286   -0.344216519353   -0.146772674532
 H    1.488807250286    1.228273480647   -0.928889674532
