13
1 1 
 C    1.017124940928    0.426104405092    1.604866487427
 C   -0.254875059072   -0.094895594908   -0.404133512573
 N   -1.062875059072    0.271104405092   -1.374133512573
 N    0.107124940928    0.780104405092    0.516866487427
 N    0.196124940928   -1.329895594908   -0.315133512573
 H   -1.407875059072    1.219104405092   -1.422133512573
 H   -1.342875059072   -0.403895594908   -2.085133512573
 H   -0.251875059072    1.731104405092    0.454866487427
 H    0.807124940928   -1.592895594908    0.444866487427
 H   -0.060875059072   -2.016895594908   -1.022133512573
 H    1.970124940928    0.118104405092    1.174866487427
 H    0.586124940928   -0.404895594908    2.166866487427
 H    1.178644940928    1.278794405092    2.280756487427
