11
1 1 
 C    0.051469959996    0.337505452507   -0.501178676304
 C    1.157469959996   -0.585494547493   -0.088178676304
 N   -1.061530040004    0.243505452507    0.493821323696
 H    0.422469959996    1.364505452507   -0.581178676304
 H   -0.308530040004    0.025505452507   -1.487178676304
 H    0.756469959996   -1.588494547493    0.080821323696
 H    1.608469959996   -0.220494547493    0.836821323696
 H   -0.955530040004    0.913505452507    1.244821323696
 H   -1.961530040004    0.396505452507    0.037821323696
 H   -1.129530040004   -0.679494547493    0.900821323696
 H    1.922339959996   -0.642124547493   -0.876698676304
