12
0 1 
 C    0.926157025668   -0.319793673671    0.493314446103
 C    1.389157025668   -1.293793673671   -0.621685553897
 C   -0.375842974332    0.401206326329    0.176314446103
 O   -0.637842974332    1.506206326329    0.643314446103
 N   -1.215842974332   -0.237793673671   -0.611685553897
 H    0.762157025668   -0.907793673671    1.395314446103
 H    1.701157025668    0.407206326329    0.727314446103
 H    0.612157025668   -2.023793673671   -0.853685553897
 H    2.225157025668   -1.859793673671   -0.213685553897
 H   -2.085842974332    0.190206326329   -0.872685553897
 H   -1.012842974332   -1.176793673671   -0.920685553897
 H    1.721487025668   -0.794223673671   -1.543633553897
