16
0 1 
 C   -2.278115839971   -0.559406333131   -1.771034740462
 C    0.523884160029    1.273593666869    0.071965259538
 C   -0.548115839971    1.005593666869   -0.792034740462
 C    1.060884160029    0.246593666869    0.844965259538
 C   -1.084115839971   -0.286406333131   -0.891034740462
 C    0.529884160029   -1.043406333131    0.762965259538
 C   -0.536115839971   -1.304406333131   -0.100034740462
 O    2.092884160029    0.533593666869    1.684965259538
 H    0.925884160029    2.273593666869    0.139965259538
 H   -0.967115839971    1.808593666869   -1.383034740462
 H    2.442884160029    1.403593666869    1.475965259538
 H    0.952884160029   -1.829406333131    1.367965259538
 H   -2.810115839971    0.375593666869   -1.942034740462
 H   -2.955115839971   -1.193406333131   -1.196034740462
 H   -0.950115839971   -2.302406333131   -0.152034740462
 H   -2.090306839971   -1.052766333131   -2.736085740462
