9
0 1 
 C   -0.334313504228   -0.907286712449   -1.083307649432
 C   -0.030313504228    0.025713287551    0.064692350568
 O   -0.862313504228    0.227713287551    0.943692350568
 N    1.152686495772    0.621713287551    0.074692350568
 H    1.386686495772    1.203713287551    0.876692350568
 H    1.871686495772    0.431713287551   -0.597307649432
 H    0.570686495772   -1.261286712449   -1.551307649432
 H   -0.895313504228   -0.342286712449   -1.830307649432
 H   -0.922483504228   -1.787386712449   -0.784175649432
