9
0 1 
 C    0.549506058977    0.111912743081   -0.126052593518
 C   -0.531493941023   -0.149087256919   -1.170052593518
 O   -0.006493941023    0.094912743081    1.174947406482
 H    1.321506058977   -0.655087256919   -0.198052593518
 H    1.002506058977    1.087912743081   -0.309052593518
 H   -0.988493941023   -1.105087256919   -0.938052593518
 H   -0.028493941023   -0.825087256919    1.509947406482
 H   -0.103623941023   -0.186067256919   -2.182752593518
 H   -1.314803941023    0.619712743081   -1.096802593518
