11
0 1 
 C   -0.445939164789    0.309140142168    0.014817995739
 C    0.935060835211    0.903140142168   -0.267182004261
 C   -0.507939164789   -1.193859857832    0.255817995739
 H   -0.879939164789    0.815140142168    0.877817995739
 H   -1.084939164789    0.524140142168   -0.842182004261
 H    1.592060835211    0.678140142168    0.571817995739
 H   -0.070939164789   -1.690859857832   -0.597182004261
 H    0.845100835211    1.994900142168   -0.367052004261
 H    1.351180835211    0.468170142168   -1.187862004261
 H    0.035970835211   -1.523749857832    1.153227995739
 H   -1.564439164789   -1.485209857832    0.350287995739
