9
0 1 
 C    0.058654329461    0.577389900240    0.034311310603
 C    0.009654329461   -0.371610099760    1.224311310603
 O   -0.013345670539   -0.156610099760   -1.160688689397
 H   -0.741345670539    1.312389900240    0.096311310603
 H    1.007654329461    1.111389900240    0.053311310603
 H    0.686654329461   -1.207610099760    1.031311310603
 H   -0.888345670539   -0.556610099760   -1.270688689397
 H   -1.011585670539   -0.750179699760    1.378431310603
 H    0.345434329461    0.125951200240    2.146091310603
