13
1 1 
 C   -1.883639481438   -0.395189147239    0.489222655421
 C    0.465360518562    0.083810852761   -0.120777344579
 N   -0.434639481438   -0.629189147239    0.540222655421
 N    0.083360518562    1.076810852761   -0.899777344579
 N    1.748360518562   -0.187189147239    0.002222655421
 H   -0.084639481438   -1.347189147239    1.165222655421
 H   -2.099639481438    0.651810852761    0.299222655421
 H   -2.289639481438   -0.628189147239    1.476222655421
 H   -0.891639481438    1.288810852761   -1.009777344579
 H    0.772360518562    1.644810852761   -1.368777344579
 H    2.013360518562   -0.861189147239    0.717222655421
 H    2.448360518562    0.373810852761   -0.453777344579
 H   -2.392859481438   -1.033689147239   -0.247677344579
