8
0 1 
 C    0.698703720640   -0.166713570400   -0.257201904579
 C   -0.700296279360    0.170286429600    0.253798095421
 H    1.064703720640    0.600286429600   -0.939201904579
 H    1.375703720640   -0.246713570400    0.583798095421
 H    0.682703720640   -1.134713570400   -0.753201904579
 H   -1.037296279360   -0.642713570400    0.898798095421
 H   -1.401326279360    0.279126429600   -0.586863904579
 H   -0.665526279360    1.102186429600    0.837200095421
