8
0 1 
 C   -0.135820861117    0.144775750919   -0.737404954386
 C    0.140179138883   -0.149224249081    0.735595045614
 H    0.052179138883   -0.741224249081   -1.344404954386
 H   -1.176820861117    0.443775750919   -0.859404954386
 H    0.488179138883    0.966775750919   -1.087404954386
 H    0.019179138883    0.775775750919    1.296595045614
 H    1.161780138883   -0.530172249081    0.881235045614
 H   -0.596389961117   -0.861963249081    1.134935045614
