8
0 1 
 C   -0.412073210919   -0.611650299309    0.187574249776
 C    0.407926789081    0.617349700691   -0.189425750224
 H   -0.803073210919   -1.101650299309   -0.702425750224
 H    0.227926789081   -1.330650299309    0.697574249776
 H   -1.228073210919   -0.340650299309    0.852574249776
 H    1.120926789081    0.315349700691   -0.954425750224
 H   -0.256863210919    1.417819700691   -0.546225750224
 H    0.988526789081    0.971919700691    0.674974249776
