8
0 1 
 C   -0.131532721307   -0.377738005978   -0.649911829494
 C    0.122467278693    0.378261994022    0.654088170506
 H   -0.229532721307    0.312261994022   -1.486911829494
 H    0.717467278693   -1.028738005978   -0.857911829494
 H   -1.021532721307   -0.992738005978   -0.574911829494
 H    1.038467278693    0.934261994022    0.532088170506
 H   -0.674433721307    1.106959994022    0.863723170506
 H    0.277505278693   -0.338247005978    1.474197170506
