14
0 1 
 C   -0.277410552738   -0.274317158558   -0.011262491586
 C   -0.536410552738    0.648682841442    1.154737508414
 C   -0.332410552738    0.523682841442   -1.310262491586
 C    1.097589447262   -0.934317158558    0.161737508414
 H   -1.028410552738   -1.061317158558   -0.052262491586
 H   -0.062410552738    1.612682841442    0.982737508414
 H   -0.065410552738    0.211682841442    2.035737508414
 H    0.366589447262    1.358682841442   -1.274262491586
 H   -0.049410552738   -0.122317158558   -2.139262491586
 H   -1.321410552738    0.897682841442   -1.542262491586
 H    1.006589447262   -1.830317158558    0.777737508414
 H    1.550589447262   -1.167317158558   -0.788262491586
 H    1.782589447262   -0.241317158558    0.654737508414
 H   -1.600130552738    0.773698841442    1.405491508414
