6
0 1 
 C   -0.418511031291   -0.545265397614   -0.232963524675
 O    0.350488968709    0.541734602386    0.237036475325
 H    1.291488968709    0.375734602386    0.005036475325
 H   -0.936511031291   -0.988265397614    0.617036475325
 H   -1.169235031291   -0.174565397614   -0.946403524675
 H    0.234881968709   -1.318243397614   -0.663753524675
