18
0 1 
 C    0.855556976829   -1.321385942415    1.306534608915
 C    2.346556976829   -0.958385942415    1.451534608915
 C    0.100556976829   -0.414385942415    0.356534608915
 C    0.345556976829   -0.480385942415   -1.021465391085
 C   -0.843443023171    0.487614057585    0.854534608915
 C   -0.356443023171    0.358614057585   -1.886465391085
 C   -1.562443023171    1.322614057585   -0.003465391085
 C   -1.299443023171    1.233614057585   -1.362465391085
 H    0.759556976829   -2.352385942415    0.962534608915
 H    0.384556976829   -1.264385942415    2.289534608915
 H    2.424556976829    0.115614057585    1.617534608915
 H    1.049556976829   -1.192385942415   -1.423465391085
 H   -1.028443023171    0.540614057585    1.918534608915
 H   -0.189443023171    0.304614057585   -2.952465391085
 H   -2.297443023171    2.017614057585    0.379534608915
 H   -1.837443023171    1.871614057585   -2.043465391085
 H    2.911536976829   -1.258202942415    0.556604608915
 H    2.747006976829   -1.496424142415    2.323404608915
