7
-1 1 
 C   -0.718021508694    0.028079292490    1.214806440520
 C    0.032978491306   -0.011920707510   -0.074193559480
 O   -0.085021508694    0.979079292490   -0.829193559480
 O    0.769978491306   -0.999920707510   -0.317193559480
 H   -1.793021508694    0.078079292490    1.024806440520
 H   -0.434021508694    0.923079292490    1.770806440520
 H   -0.487031508694   -0.862787707510    1.817300440520
