7
-1 1 
 C    1.313308381503   -0.104669689461   -0.546055861240
 C   -0.074691618497   -0.000669689461    0.039944138760
 O   -1.032691618497   -0.087669689461   -0.757055861240
 O   -0.209691618497    0.192330310539    1.269944138760
 H    1.392308381503    0.563330310539   -1.407055861240
 H    1.481308381503   -1.129669689461   -0.887055861240
 H    2.095909181503    0.159557310539    0.180388138760
