9
0 1 
 C    1.051898189769    0.724228357582   -0.657499669189
 C   -0.038101810231   -0.070771642418   -0.003499669189
 O   -0.201101810231   -1.250771642418   -0.285499669189
 N   -0.778101810231    0.559228357582    0.889500330811
 H   -1.384101810231   -0.010771642418    1.481500330811
 H   -0.609101810231    1.537228357582    1.076500330811
 H    0.864898189769    1.790228357582   -0.522499669189
 H    1.014898189769    0.523228357582   -1.727499669189
 H    2.045158189769    0.460028357582   -0.265537669189
