8
0 1 
 C    0.230623422807    0.558143546876   -0.467740951899
 C   -0.226376577193   -0.559856453124    0.469259048101
 H    1.269623422807    0.406143546876   -0.758740951899
 H   -0.402376577193    0.550143546876   -1.351740951899
 H    0.124623422807    1.527143546876    0.018259048101
 H   -1.295376577193   -0.444856453124    0.649259048101
 H    0.301865422807   -0.482342453124    1.430999048101
 H   -0.048925577193   -1.535836453124   -0.006110951899
