7
-1 1 
 C   -1.086573990666    0.819199435507    0.468325398507
 C    0.016426009334   -0.041800564493   -0.070674601493
 O   -0.008573990666   -1.282800564493    0.044325398507
 O    1.068426009334    0.506199435507   -0.457674601493
 H   -1.847573990666    0.177199435507    0.907325398507
 H   -1.526573990666    1.406199435507   -0.337674601493
 H   -0.704403990666    1.485469435507    1.255741098507
