13
1 1 
 C    1.645433310011    0.498892185277    0.934223645692
 C   -0.399566689989   -0.130107814723   -0.230776354308
 N   -1.067566689989   -0.996107814723   -0.972776354308
 N    0.853433310011   -0.403107814723    0.123223645692
 N   -0.979566689989    0.999892185277    0.154223645692
 H   -0.633566689989   -1.856107814723   -1.270776354308
 H   -2.032566689989   -0.795107814723   -1.238776354308
 H    1.275433310011   -1.269107814723   -0.182776354308
 H   -0.471566689989    1.666892185277    0.716223645692
 H   -1.937566689989    1.202892185277   -0.121776354308
 H    1.430433310011    1.520892185277    0.618223645692
 H    2.693433310011    0.287892185277    0.757223645692
 H    1.427333310011    0.399042185277    2.007753645692
