11
0 1 
 C    0.200565784436   -0.458555452859   -0.265055194745
 C   -0.248434215564   -0.465555452859    1.194944805255
 C    0.057565784436    0.900444547141   -0.946055194745
 H    1.246565784436   -0.769555452859   -0.291055194745
 H   -0.383434215564   -1.194555452859   -0.819055194745
 H   -0.078434215564   -1.472555452859    1.587944805255
 H   -0.994434215564    1.060444547141   -1.181055194745
 H    0.389565784436    1.709444547141   -0.297055194745
 H   -1.314948215564   -0.207235652859    1.271232205255
 H    0.371943784436    0.216353747141    1.795053805255
 H    0.647710784436    0.939450447141   -1.873529194745
