15
0 1 
 C    1.046497035382    0.065957272100    1.479726665783
 C    0.928497035382   -1.296042727900    2.188726665783
 C    0.198497035382    0.205957272100    0.238726665783
 C   -0.935502964618    0.930957272100    0.018726665783
 C   -0.423502964618   -0.105042727900   -1.851273334217
 N    0.495497035382   -0.441042727900   -0.948273334217
 N   -1.304502964618    0.717957272100   -1.297273334217
 H    0.750497035382    0.847957272100    2.166726665783
 H    2.084497035382    0.241957272100    1.197726665783
 H    1.247497035382   -2.052042727900    1.478726665783
 H   -1.439502964618    1.558957272100    0.741726665783
 H   -0.483502964618   -0.445042727900   -2.857273334217
 H   -2.098502964618    1.134957272100   -1.773273334217
 H   -0.118472964618   -1.459142727900    2.484103665783
 H    1.600167035382   -1.315052727900    3.059644665783
