8
0 1 
 C   -0.667043056018    0.196052587600    0.289361893116
 C    0.668956943982   -0.196947412400   -0.290638106884
 H   -1.008043056018    1.118052587600   -0.177638106884
 H   -1.392043056018   -0.591947412400    0.090361893116
 H   -0.581043056018    0.339052587600    1.366361893116
 H    1.042956943982   -1.062947412400    0.241361893116
 H    1.338456943982    0.664357587600   -0.149499806884
 H    0.576926943982   -0.455913412400   -1.355752106884
