11
1 1 
 C    0.083262121722    0.586145633709    0.023784315761
 C   -1.348737878278   -0.015854366291    0.184784315761
 N    1.125262121722   -0.470854366291   -0.179215684239
 H    0.077262121722    1.266145633709   -0.834215684239
 H    0.319262121722    1.174145633709    0.915784315761
 H   -1.366737878278   -0.706854366291    1.028784315761
 H   -1.596737878278   -0.568854366291   -0.721215684239
 H    0.899262121722   -0.998854366291   -1.025215684239
 H    2.044262121722   -0.065854366291   -0.301215684239
 H    1.161262121722   -1.114854366291    0.598784315761
 H   -2.104817878278    0.766835633709    0.345204315761
