6
0 1 
 C   -0.652286227302    0.298099786988   -0.146881072321
 O    0.630713772698   -0.269900213012    0.089118927679
 H    0.710713772698   -0.621900213012    0.995118927679
 H   -0.625286227302    0.844099786988   -1.086881072321
 H   -0.904286227302    0.993099786988    0.654118927679
 H   -1.424366227302   -0.481210213012   -0.227851072321
