8
0 1 
 C    0.717578023682    0.221591730734   -0.050892699247
 C   -0.716421976318   -0.222408269266    0.057107300753
 H    1.379578023682   -0.473408269266    0.461107300753
 H    1.000578023682    0.272591730734   -1.100892699247
 H    0.835578023682    1.210591730734    0.388107300753
 H   -1.314421976318    0.385591730734   -0.621892699247
 H   -1.126481976318   -0.116333269266    1.072287300753
 H   -0.788594976318   -1.269311269266   -0.272712699247
