8
0 1 
 C    0.720537673047    0.279098416084   -0.045843008659
 C   -0.719462326953   -0.283901583916    0.043156991341
 H    0.855537673047    0.828098416084   -0.974843008659
 H    0.889537673047    0.956098416084    0.790156991341
 H    1.456537673047   -0.518901583916    0.005156991341
 H   -0.857462326953   -0.786901583916    1.000156991341
 H   -0.933492326953   -0.980951583916   -0.780433008659
 H   -1.423462326953    0.559748416084   -0.008213008659
