16
0 1 
 C    2.618407519666    1.225949915843   -0.589642180302
 C   -1.236592480334   -0.581050084157    0.259357819698
 C   -0.086592480334   -0.997050084157    0.966357819698
 C   -1.106592480334    0.406949915843   -0.689642180302
 C    1.171407519666   -0.418050084157    0.686357819698
 C    0.142407519666    0.997949915843   -0.928642180302
 C    1.288407519666    0.589949915843   -0.262642180302
 O   -2.496592480334   -1.082050084157    0.463357819698
 H   -0.162592480334   -1.770050084157    1.715357819698
 H   -2.563592480334   -1.597050084157    1.274357819698
 H   -1.974592480334    0.729949915843   -1.244642180302
 H    2.049407519666   -0.759050084157    1.219357819698
 H    0.215407519666    1.779949915843   -1.673642180302
 H    3.326407519666    1.082949915843    0.228357819698
 H    2.456407519666    2.299949915843   -0.702642180302
 H    3.045677519666    0.824579915843   -1.520422180302
