15
0 1 
 C    0.447333444984    2.040708739563   -1.269913332073
 C   -0.285666555016   -1.550291260437    0.948086667927
 C   -0.461666555016   -1.549291260437   -0.418913332073
 C    0.077333444984   -0.396291260437    1.621086667927
 C   -0.253666555016   -0.378291260437   -1.135913332073
 C    0.275333444984    0.783708739563    0.901086667927
 C    0.124333444984    0.796708739563   -0.481913332073
 H   -0.456666555016   -2.458291260437    1.503086667927
 H   -0.749666555016   -2.460291260437   -0.923913332073
 H    0.207333444984   -0.411291260437    2.695086667927
 H   -0.370666555016   -0.381291260437   -2.210913332073
 H    0.573333444984    1.680708739563    1.423086667927
 H    0.909333444984    1.735708739563   -2.210913332073
 H    1.202333444984    2.607708739563   -0.722913332073
 H   -0.402486555016    2.699928739563   -1.500643332073
