14
0 1 
 C   -0.048824380398    0.197875641780   -0.298278823069
 C    0.709175619602   -1.082124358220   -0.666278823069
 C   -1.419824380398   -0.135124358220    0.248721176931
 C    0.757175619602    1.033875641780    0.680721176931
 H   -0.187824380398    0.787875641780   -1.201278823069
 H    1.002175619602   -1.615124358220    0.237721176931
 H   -1.367824380398   -0.892124358220    1.032721176931
 H   -1.855824380398    0.774875641780    0.654721176931
 H   -2.085824380398   -0.481124358220   -0.543278823069
 H    1.723175619602    1.291875641780    0.245721176931
 H    0.220175619602    1.968875641780    0.846721176931
 H    1.592255619602   -0.811870358220   -1.263878823069
 H    0.063835619602   -1.754986358220   -1.250058823069
 H    0.923035619602    0.559047641780    1.659001176931
