14
0 1 
 C   -0.021092173532   -0.248926094007   -0.286196451910
 C   -1.446092173532    0.013073905993    0.240803548090
 C    0.604907826468    1.043073905993   -0.808196451910
 C    0.851907826468   -0.841926094007    0.817803548090
 H   -0.076092173532   -0.968926094007   -1.101196451910
 H   -1.373092173532    0.642073905993    1.112803548090
 H    0.513907826468    1.840073905993   -0.067196451910
 H    1.662907826468    0.882073905993   -1.002196451910
 H    0.143907826468    1.354073905993   -1.746196451910
 H    0.385907826468   -1.710926094007    1.273803548090
 H    1.810907826468   -1.148926094007    0.396803548090
 H    1.019907826468   -0.083926094007    1.575803548090
 H   -1.943332173532   -0.926996094007    0.521913548090
 H   -2.021472173532    0.534623905993   -0.538246451910
