8
0 1 
 C    0.155460437127   -0.631717030939   -0.395798035019
 C   -0.158539562873    0.634282969061    0.392201964981
 H   -0.061539562873   -0.467717030939   -1.450798035019
 H    1.209460437127   -0.880717030939   -0.283798035019
 H   -0.441539562873   -1.462717030939   -0.018798035019
 H    0.134460437127    0.459282969061    1.424201964981
 H   -1.238859562873    0.836302969061    0.346352964981
 H    0.434680437127    1.485012969061    0.025656964981
