15
0 1 
 C    1.325676857480   -1.108408346692   -0.498687776890
 C    1.084676857480   -2.516408346692    0.050312223110
 C    0.302676857480   -0.066408346692   -0.126687776890
 C    0.467676857480    1.063591653308    0.614312223110
 C   -1.574323142520    1.067591653308   -0.133687776890
 N   -0.993323142520   -0.045408346692   -0.578687776890
 N   -0.719323142520    1.748591653308    0.612312223110
 H    2.282676857480   -0.751408346692   -0.117687776890
 H    1.396676857480   -1.154408346692   -1.585687776890
 H    0.816676857480   -2.437408346692    1.105312223110
 H    1.388676857480    1.367591653308    1.093312223110
 H   -2.591323142520    1.368591653308   -0.350687776890
 H   -0.898323142520    2.630591653308    1.055312223110
 H    2.008452857480   -3.105636346692   -0.046887776890
 H    0.265650857480   -3.007389346692   -0.495707776890
