8
0 1 
 C    0.643791935245   -0.403895204783   -0.036702362670
 C   -0.645208064755    0.403104795217    0.035297637330
 H    0.561791935245   -1.187895204783   -0.790702362670
 H    1.476791935245    0.249104795217   -0.286702362670
 H    0.843791935245   -0.864895204783    0.931297637330
 H   -0.522208064755    1.206104795217    0.763297637330
 H   -1.479808064755   -0.242844204783    0.345447637330
 H   -0.863498064755    0.849836295217   -0.945912362670
