11
0 1 
 C   -0.503322153537   -0.340506599969    0.085288972723
 C   -0.089322153537    0.330493400031   -1.229711027277
 C    0.546677846463   -0.019506599969    1.151288972723
 H   -1.478322153537    0.030493400031    0.401288972723
 H   -0.562322153537   -1.419506599969   -0.055711027277
 H    0.874677846463   -0.085506599969   -1.528711027277
 H    0.070677846463    1.395493400031   -1.066711027277
 H    1.534677846463   -0.311506599969    0.804288972723
 H    0.554677846463    1.057493400031    1.315288972723
 H   -0.792806153537    0.198043400031   -2.064921027277
 H    0.346053846463   -0.513516599969    2.113423972723
