8
1 1 
 C   -0.267536032190   -0.469929704800    0.573983322069
 N    0.238463967810    0.414070295200   -0.509016677931
 H    1.219463967810    0.255070295200   -0.701016677931
 H   -0.276536032190    0.277070295200   -1.370016677931
 H    0.134463967810    1.397070295200   -0.235016677931
 H   -0.107536032190   -1.521929704800    0.310983322069
 H   -1.342536032190   -0.314929704800    0.710983322069
 H    0.244883967810   -0.250216704800    1.522218322069
