12
0 1 
 C   -0.027564276159    0.380051745252    0.044993534940
 C   -0.266564276159   -0.282948254748    1.413993534940
 C    1.366435723841    0.043051745252   -0.462006465060
 O   -0.962564276159   -0.150948254748   -0.897006465060
 H   -0.150564276159    1.457051745252    0.108993534940
 H    0.587435723841   -0.032948254748    2.043993534940
 H    1.459435723841   -1.032948254748   -0.613006465060
 H    1.536435723841    0.556051745252   -1.407006465060
 H    2.117435723841    0.377051745252    0.251993534940
 H   -1.526564276159    0.583051745252   -1.227006465060
 H   -0.370604276159   -1.375028254748    1.333154534940
 H   -1.144194276159    0.194571745252    1.874150534940
