11
0 1 
 C    0.267216006573    0.474564456460    0.181099283916
 C   -1.150783993427    0.490564456460   -0.431900716084
 C    0.901216006573   -0.932435543540    0.267099283916
 H    0.914216006573    1.078564456460   -0.452900716084
 H    0.232216006573    0.926564456460    1.165099283916
 H   -1.780783993427   -0.209435543540    0.121099283916
 H   -1.088783993427    0.143564456460   -1.464900716084
 H    0.317216006573   -1.552435543540    0.950099283916
 H    0.884216006573   -1.390435543540   -0.723900716084
 H   -1.629723993427    1.480524456460   -0.407670716084
 H    1.941296006573   -0.866185543540    0.619019283916
