6
0 1 
 C   -0.577388370693    0.433269697540    0.123970338257
 O    0.580611629307   -0.363730302460   -0.116029661743
 H    0.281611629307   -1.275730302460   -0.222029661743
 H   -0.992388370693    0.174269697540    1.098970338257
 H   -0.290806370693    1.495266697540    0.129690338257
 H   -1.338280370693    0.219989697540   -0.641249661743
