8
0 1 
 C   -0.402861440277   -0.322878399936    0.568355828261
 C    0.397138559723    0.325121600064   -0.558644171739
 H   -1.304861440277   -0.779878399936    0.157355828261
 H    0.195138559723   -1.094878399936    1.052355828261
 H   -0.717861440277    0.419121600064    1.292355828261
 H    1.390138559723    0.529121600064   -0.177644171739
 H    0.018948559723    1.250314600064   -1.017984171739
 H    0.486638559723   -0.350510399936   -1.422074171739
