11
0 1 
 C    0.381453374854    0.442682250210    0.033251719224
 C   -1.081546625146    0.626682250210   -0.370748280776
 C    0.723453374854   -1.036317749790    0.328251719224
 H    1.046453374854    0.808682250210   -0.747748280776
 H    0.565453374854    1.018682250210    0.938251719224
 H   -1.703546625146   -0.016317749790    0.254251719224
 H   -1.212546625146    0.310682250210   -1.406748280776
 H    1.788453374854   -1.081317749790    0.575251719224
 H    0.173453374854   -1.339317749790    1.226251719224
 H   -1.450336625146    1.655642250210   -0.247331280776
 H    0.514471374854   -1.750217749790   -0.482102280776
