8
0 1 
 C    0.728137548662    0.221177312785   -0.056612135565
 C   -0.728862451338   -0.218822687215    0.055387864435
 H    0.905137548662    0.673177312785   -1.032612135565
 H    0.939137548662    0.891177312785    0.729387864435
 H    1.392137548662   -0.628822687215    0.081387864435
 H   -0.900862451338   -0.660822687215    1.038387864435
 H   -0.960105451338   -0.968722687215   -0.715422135565
 H   -1.366813451338    0.665977312785   -0.086552135565
