8
1 1 
 C   -0.012913222699   -0.461195984433    0.644957355433
 N    0.009086777301    0.406804015567   -0.572042644567
 H    0.719086777301    1.129804015567   -0.465042644567
 H   -0.881913222699    0.867804015567   -0.722042644567
 H    0.240086777301   -0.130195984433   -1.409042644567
 H   -0.200913222699    0.149804015567    1.534957355433
 H    0.956086777301   -0.958195984433    0.768957355433
 H   -0.804933222699   -1.219915984433    0.560977355433
