6
0 1 
 C    0.305592798900   -0.352724935315    0.559297713256
 O   -0.289407201100    0.282275064685   -0.561702286744
 H   -0.400407201100    1.224275064685   -0.365702286744
 H   -0.334407201100   -0.160724935315    1.420297713256
 H    1.276592798900    0.097275064685    0.761297713256
 H    0.412682798900   -1.440899935315    0.439267713256
