13
1 1 
 C   -0.795132083477   -1.470690690307   -1.075006243304
 C    0.201867916523    0.361309309693    0.255993756696
 N    0.175867916523   -0.399690690307   -0.826006243304
 N   -0.683132083477    0.184309309693    1.217993756696
 N    1.103867916523    1.314309309693    0.368993756696
 H    0.926867916523   -0.279690690307   -1.493006243304
 H   -1.326132083477   -0.586690690307    1.168993756696
 H   -0.639132083477    0.731309309693    2.062993756696
 H    1.790867916523    1.455309309693   -0.355006243304
 H    1.144867916523    1.882309309693    1.200993756696
 H   -1.787132083477   -1.171690690307   -0.751006243304
 H   -0.505132083477   -2.360690690307   -0.512006243304
 H   -0.830602083477   -1.729840690307   -2.143455243304
