10
-1 1 
 C    0.780562470561    0.087544865038    0.730653271158
 C    0.073562470561   -0.709455134962    1.817653271158
 C   -0.079437529439    0.200544865038   -0.500346728842
 O   -0.948437529439   -0.679455134962   -0.746346728842
 O    0.210562470561    1.130544865038   -1.276346728842
 H    1.041562470561    1.076544865038    1.111653271158
 H    1.700562470561   -0.416455134962    0.431653271158
 H   -0.307437529439   -1.630455134962    1.372653271158
 H   -0.764557529439   -0.136045134962    2.240443271158
 H    0.816412470561   -1.035585134962    2.560503271158
