7
-1 1 
 C   -0.997457055575    0.694718698526   -0.782389294356
 C    0.059542944425   -0.033281301474    0.045610705644
 O    0.531542944425   -1.107281301474   -0.402389294356
 O    0.406542944425    0.446718698526    1.148610705644
 H   -1.753457055575   -0.020281301474   -1.105389294356
 H   -0.512457055575    1.069718698526   -1.687389294356
 H   -1.454607055575    1.558548698526   -0.277600294356
