8
0 1 
 C    0.241039579176    0.476429405331   -0.547854898715
 C   -0.240960420824   -0.480570594669    0.548145101285
 H    0.445039579176   -0.074570594669   -1.468854898715
 H   -0.510960420824    1.236429405331   -0.755854898715
 H    1.138039579176    1.006429405331   -0.233854898715
 H   -0.332960420824    0.082429405331    1.477145101285
 H    0.482759579176   -1.297163594669    0.687459101285
 H   -1.222860420824   -0.904245594669    0.290505101285
