15
0 1 
 C    2.238359537977    0.963384284954   -0.103709005439
 C    0.659359537977   -0.974615715046   -0.332709005439
 C    0.861359537977    0.372384284954   -0.056709005439
 C   -0.616640462023   -1.521615715046   -0.284709005439
 C   -0.223640462023    1.158384284954    0.320290994561
 C   -1.699640462023   -0.728615715046    0.078290994561
 C   -1.502640462023    0.608384284954    0.391290994561
 H    1.499359537977   -1.602615715046   -0.584709005439
 H   -0.762640462023   -2.567615715046   -0.518709005439
 H    2.168359537977    1.968384284954   -0.520709005439
 H    2.860359537977    0.375384284954   -0.778709005439
 H   -0.077640462023    2.202384284954    0.560290994561
 H   -2.693640462023   -1.154615715046    0.125290994561
 H   -2.339640462023    1.223384284954    0.690290994561
 H    2.720869537977    1.011634284954    0.883640994561
