11
0 1 
 C   -0.576867858496   -0.061775263213   -0.309478812435
 C    0.742132141504   -0.746775263213   -0.626478812435
 C   -0.209867858496    0.795224736787    0.917521187565
 H   -1.364867858496   -0.785775263213   -0.101478812435
 H   -0.892867858496    0.588224736787   -1.121478812435
 H    0.947132141504   -1.529775263213    0.105521187565
 H    0.763132141504   -1.152775263213   -1.636478812435
 H   -0.920867858496    1.607224736787    1.002521187565
 H    1.462422141504    0.076724736787   -0.512368812435
 H    0.793102141504    1.151384736787    0.639671187565
 H   -0.256097858496    0.203434736787    1.843611187565
