12
0 1 
 C    0.444132550514   -0.981722963700    1.932362799824
 C   -0.651867449486    1.112277036300   -0.827637200176
 C    0.160132550514   -0.349722963700    0.600362799824
 C    0.554132550514   -0.719722963700   -0.646637200176
 N   -0.583867449486    0.801277036300    0.460362799824
 N    0.030132550514    0.209277036300   -1.520637200176
 H   -1.201867449486    1.943277036300   -1.243637200176
 H    0.060132550514    0.185277036300   -2.529637200176
 H    1.155132550514   -1.588722963700   -0.891637200176
 H    0.990132550514   -0.274722963700    2.553362799824
 H    1.110132550514   -1.815722963700    1.760362799824
 H   -0.451044449486   -1.311152963700    2.480212799824
