11
0 1 
 C    0.468680671365    0.008101916904   -0.331908767140
 C    0.446680671365   -0.526898083096    1.109091232860
 C   -0.888319328635    0.524101916904   -0.795908767140
 H    1.202680671365    0.815101916904   -0.373908767140
 H    0.806680671365   -0.778898083096   -1.009908767140
 H   -0.374319328635   -1.237898083096    1.209091232860
 H   -1.383319328635    1.093101916904   -0.012908767140
 H    0.299790671365    0.285481916904    1.836041232860
 H    1.370020671365   -1.088838083096    1.313231232860
 H   -0.717789328635    1.176941916904   -1.664654767140
 H   -1.525729328635   -0.328168083096   -1.074011767140
