9
0 1 
 C   -1.266570377115    0.762271044289    0.164776708899
 C    1.004429622885   -0.168728955711   -1.109223291101
 S    0.130429622885   -0.302728955711    0.478776708899
 H   -1.821570377115    0.376271044289   -0.680223291101
 H   -1.911570377115    0.788271044289    1.042776708899
 H   -0.918570377115    1.772271044289   -0.058223291101
 H    1.915429622885   -0.732728955711   -0.986223291101
 H    1.276429622885    0.873271044289   -1.282223291101
 H    0.443389622885   -0.540836955711   -1.979151291101
