8
0 1 
 C   -0.066417364806    0.270651518302   -0.707231560230
 C    0.064582635194   -0.274348481698    0.708768439770
 H   -1.022417364806   -0.018348481698   -1.143231560230
 H   -0.004417364806    1.351651518302   -0.673231560230
 H    0.745582635194   -0.105348481698   -1.329231560230
 H    1.005582635194    0.071651518302    1.139768439770
 H    0.062342635194   -1.373738481698    0.672198439770
 H   -0.764827364806    0.118151518302    1.315428439770
