11
0 1 
 C   -0.454153033096    0.113247676612   -0.413227699653
 C   -0.427153033096    0.540247676612    1.031772300347
 C    0.841846966904   -0.643752323388   -0.649227699653
 H   -0.472153033096    1.002247676612   -1.045227699653
 H   -1.321153033096   -0.513752323388   -0.626227699653
 H   -0.665153033096    1.602247676612    1.125772300347
 H   -1.121153033096   -0.061752323388    1.613772300347
 H    1.231846966904   -0.454752323388   -1.649227699653
 H    0.661846966904   -1.710752323388   -0.540227699653
 H    0.598172966904    0.330249676612    1.370312300347
 H    1.557577966904   -0.309744323388    0.116392300347
