8
0 1 
 C    0.075825403154   -0.699768294110    0.303544733102
 C   -0.084174596846    0.700231705890   -0.305455266898
 H   -0.404174596846   -1.449768294110   -0.323455266898
 H    1.136825403154   -0.941768294110    0.377544733102
 H   -0.359174596846   -0.723768294110    1.302544733102
 H    0.272825403154    0.693231705890   -1.336455266898
 H    0.573825403154    1.350231705890    0.268544733102
 H   -1.120714596846    1.066323705890   -0.265975266898
