18
0 1 
 C    1.880751944055    0.776986276420    0.295905203813
 C    2.146751944055    0.689986276420    1.789905203813
 C    0.524751944055    0.241986276420   -0.078094796187
 C    0.269751944055   -1.121013723580   -0.013094796187
 C   -0.499248055945    1.094986276420   -0.460094796187
 C   -0.997248055945   -1.628013723580   -0.322094796187
 C   -1.760248055945    0.587986276420   -0.798094796187
 C   -2.005248055945   -0.780013723580   -0.717094796187
 H    1.974751944055    1.815986276420   -0.014094796187
 H    2.627751944055    0.201986276420   -0.249094796187
 H    1.808751944055   -0.294013723580    2.116905203813
 H    1.049751944055   -1.802013723580    0.294905203813
 H   -0.309248055945    2.150986276420   -0.533094796187
 H   -1.178248055945   -2.687013723580   -0.248094796187
 H   -2.553248055945    1.252986276420   -1.110094796187
 H   -2.982248055945   -1.172013723580   -0.961094796187
 H    1.570211944055    1.453886276420    2.332175203813
 H    3.230591944055    0.711766276420    1.976475203813
