8
1 1 
 C   -0.021080558387    0.758213249589    0.272211030312
 N    0.014919441613   -0.672786750411   -0.240788969688
 H   -0.748080558387   -0.864786750411   -0.878788969688
 H    0.880919441613   -0.849786750411   -0.750788969688
 H   -0.032080558387   -1.320786750411    0.546211030312
 H    0.355919441613    1.435213249589   -0.501788969688
 H    0.628919441613    0.851213249589    1.150211030312
 H   -1.041890558387    1.068953249589    0.539381030312
