12
0 1 
 C    0.486779242312    0.554725872903   -0.812114304518
 C    1.895779242311    0.075725872903   -0.475114304518
 C   -0.510220757688    0.013725872903    0.180885695482
 O   -0.517220757688    0.426725872903    1.349885695482
 N   -1.311220757688   -0.971274127097   -0.259114304518
 H    0.455779242312    1.644725872903   -0.781114304518
 H    0.215779242312    0.236725872903   -1.821114304518
 H    2.188779242312    0.474725872903    0.499885695482
 H   -1.984220757688   -1.366274127097    0.379885695482
 H   -1.258220757688   -1.295274127097   -1.214114304518
 H    2.611369242312    0.382188872903   -1.252298304518
 H    1.904359242311   -1.024157127097   -0.461535304518
