11
0 1 
 C   -0.424679085320    0.359627563893   -0.006628027905
 C   -0.577679085320   -1.084372436107    0.490371972095
 C    0.977320914680    0.740627563893   -0.489628027905
 H   -1.131679085320    0.534627563893   -0.817628027905
 H   -0.692679085320    1.026627563893    0.812371972095
 H   -0.350679085320   -1.789372436107   -0.308628027905
 H    1.698320914680    0.525627563893    0.298371972095
 H   -1.620144085320   -1.224224436107    0.812409972095
 H    0.105822914680   -1.239943436107    1.338087972095
 H    1.253734914680    0.156045563893   -1.379492027905
 H    1.035416914680    1.821499563893   -0.685433027905
