8
0 1 
 C   -0.582397591521   -0.151553347566    0.466727518926
 C    0.583602408479    0.154446652434   -0.465272481074
 H   -0.980397591521    0.770446652434    0.888727518926
 H   -1.370397591521   -0.656553347566   -0.092272481074
 H   -0.258397591521   -0.809553347566    1.270727518926
 H    1.052602408479   -0.785553347566   -0.764272481074
 H    1.325472408479    0.783386652434    0.048597518926
 H    0.216772408479    0.663376652434   -1.368832481074
