12
0 1 
 C   -0.181744190638    0.113591815371    1.090537011997
 C   -0.516744190638   -1.294408184629    1.568537011997
 C   -0.624744190638    0.844591815371   -1.543462988003
 S    0.652255809362    0.148591815371   -0.504462988003
 H   -1.060744190638    0.724591815371    1.048537011997
 H    0.505255809362    0.534591815371    1.818537011997
 H   -0.909744190638   -1.237408184629    2.584537011997
 H    0.415255809362   -1.858408184629    1.609537011997
 H   -0.888744190638    1.839591815371   -1.183462988003
 H   -0.258744190638    0.919591815371   -2.567462988003
 H   -1.508744190638    0.206591815371   -1.523462988003
 H   -1.230340190638   -1.839676184629    0.933350011997
