8
0 1 
 C   -0.226163627782   -0.108241393687    0.718322016381
 C    0.223836372218    0.108758606313   -0.720677983619
 H    0.541836372218    0.280758606313    1.382322016381
 H   -1.139163627782    0.458758606313    0.900322016381
 H   -0.416163627782   -1.155241393687    0.938322016381
 H    1.021836372218   -0.601241393687   -0.895677983619
 H    0.575836372218    1.133758606313   -0.836677983619
 H   -0.556471627782   -0.122951393687   -1.460557983619
