19
0 1 
 C   -0.940868753182   -2.819833271341    0.314906367345
 C    0.521131246818    0.660166728659    0.467906367345
 C   -0.241868753182   -0.330833271341   -0.201093632655
 C   -0.256868753182   -1.498833271341    0.632906367345
 C    0.461131246818   -1.163833271341    1.765906367345
 C    0.173131246818    2.200166728659   -1.323093632655
 C    0.716131246818    1.926166728659   -0.068093632655
 C   -0.568868753182    1.241166728659   -2.006093632655
 C   -0.773868753182   -0.026833271341   -1.471093632655
 N    0.926131246818    0.128166728659    1.664906367345
 H    0.328131246818    3.174166728659   -1.771093632655
 H    1.301131246818    2.667166728659    0.454906367345
 H   -0.981868753182    1.480166728659   -2.978093632655
 H   -1.346868753182   -0.765833271341   -2.013093632655
 H    1.440131246818    0.620166728659    2.391906367345
 H    0.627131246818   -1.805833271341    2.622906367345
 H   -1.276868753182   -2.764833271341   -0.720093632655
 H   -1.827868753182   -2.920833271341    0.939906367345
 H   -0.286078753182   -3.697664271341    0.418176367345
