11
0 1 
 C   -0.547614714702   -0.076829256244    0.017893062247
 C    0.186385285298    0.847170743756    0.965893062247
 C    0.332385285298   -0.769829256244   -0.992106937753
 H   -1.023614714702   -0.860829256244    0.597893062247
 H   -1.333614714702    0.483170743756   -0.493106937753
 H    1.017385285298    0.315170743756    1.433893062247
 H   -0.517614714702    1.114170743756    1.749893062247
 H    0.663385285298   -0.059829256244   -1.760106937753
 H    1.219385285298   -1.158829256244   -0.477106937753
 H    0.559445285298    1.760216743756    0.478883062247
 H   -0.241314714702   -1.599340256244   -1.431166937753
