14
0 1 
 C    0.088144615947    0.143430465965   -0.305770305293
 C   -1.199855384053   -0.692569534035   -0.540770305293
 C   -0.150855384053    1.307430465965    0.660229694707
 C    1.262144615947   -0.735569534035    0.156229694707
 H    0.382144615947    0.557430465965   -1.261770305293
 H   -0.922855384053   -1.491569534035   -1.228770305293
 H   -0.429855384053    0.943430465965    1.650229694707
 H    0.763144615947    1.895430465965    0.752229694707
 H   -0.931855384053    1.952430465965    0.272229694707
 H    2.153144615947   -0.108569534035    0.204229694707
 H    1.068144615947   -1.112569534035    1.154229694707
 H   -1.994325384053   -0.121869534035   -1.043884305293
 H   -1.559195384053   -1.198809534035    0.367300694707
 H    1.476527615947   -1.585879534035   -0.507852305293
