15
0 1 
 C    0.724111107330    1.669026448013    1.645814738142
 C    0.806111107330   -0.986973551987   -1.085185261858
 C    1.218111107330   -0.044973551987   -0.137185261858
 C   -0.550888892670   -1.258973551987   -1.256185261858
 C    0.282111107330    0.624026448013    0.651814738142
 C   -1.492888892670   -0.581973551987   -0.482185261858
 C   -1.076888892670    0.358026448013    0.461814738142
 H    1.540111107330   -1.508973551987   -1.681185261858
 H    2.271111107330    0.160026448013   -0.009185261858
 H   -0.872888892670   -1.991973551987   -1.983185261858
 H   -2.547888892670   -0.788973551987   -0.609185261858
 H   -0.114888892670    2.330026448013    1.855814738142
 H    1.489111107330    2.288026448013    1.176814738142
 H   -1.816888892670    0.877026448013    1.055814738142
 H    1.126483107330    1.275926448013    2.591103738142
