11
0 1 
 C    0.041762644113   -0.059827461066   -0.557539133579
 C    0.934762644113    0.901172538934    0.240460866421
 C   -0.973237355887   -0.843827461066    0.283460866421
 H   -0.493237355887    0.511172538934   -1.314539133579
 H    0.675762644113   -0.779827461066   -1.075539133579
 H    0.318762644113    1.715172538934    0.625460866421
 H   -0.441237355887   -1.496827461066    0.976460866421
 H    1.708002644113    1.334278538934   -0.411088033579
 H    1.394732644113    0.391534538934    1.099935366421
 H   -1.612117355887   -0.163798461066    0.866033766421
 H   -1.589817355887   -1.482147461066   -0.366447933579
