8
0 1 
 C   -0.118541469003    0.046488885277    0.758420612602
 C    0.116458530997   -0.054511114723   -0.757579387398
 H   -0.195541469003   -0.951511114723    1.190420612602
 H    0.717458530997    0.556488885277    1.231420612602
 H   -1.022541469003    0.612488885277    0.978420612602
 H    0.966458530997   -0.700511114723   -0.956579387398
 H    0.320458530997    0.943488885277   -1.110579387398
 H   -0.761491469003   -0.364925114723   -1.343119387398
