8
0 1 
 C   -0.279343924841   -0.444221738266   -0.551042614230
 C    0.280656075159    0.444778261734    0.553957385770
 H   -0.903343924841   -1.230221738266   -0.124042614230
 H   -0.886343924841    0.146778261734   -1.233042614230
 H    0.538656075159   -0.893221738266   -1.115042614230
 H    0.893656075159    1.220778261734    0.103957385770
 H    0.886256075159   -0.174459738266    1.232037385770
 H   -0.544503924841    0.923720261734    1.101427385770
