8
0 1 
 C    0.723076368647   -0.277538674487    0.013177451763
 C   -0.723923631353    0.271461325513   -0.015822548237
 H    0.792076368647   -1.211538674487   -0.539822548237
 H    1.389076368647    0.448461325513   -0.452822548237
 H    1.056076368647   -0.436538674487    1.037177451763
 H   -0.725923631353    1.218461325513    0.524177451763
 H   -1.416343631353   -0.410260674487    0.499747451763
 H   -1.084873631353    0.463777325513   -1.036962548237
