11
0 1 
 C   -0.273199672276    0.304821131196   -0.421420526559
 C    0.013800327724   -1.190178868804   -0.485420526559
 C    0.236800327724    0.906821131196    0.878579473441
 H    0.218800327724    0.797821131196   -1.258420526559
 H   -1.347199672276    0.484821131196   -0.488420526559
 H   -0.344199672276   -1.692178868804    0.411579473441
 H    1.086800327724   -1.344178868804   -0.513420526559
 H    1.315800327724    0.749821131196    0.937579473441
 H    0.037800327724    1.977821131196    0.864579473441
 H   -0.443519672276   -1.671308868804   -1.362560526559
 H   -0.255199672276    0.441821131196    1.745589473441
