7
-1 1 
 C   -1.355933122700   -0.291651403509   -0.406981875008
 C    0.078066877300   -0.001651403509    0.036018124992
 O    0.255066877300    0.701348596491    1.055018124992
 O    1.028066877300   -0.403651403509   -0.679981875008
 H   -1.649933122700   -1.247651403509    0.008018124992
 H   -1.412933122700   -0.438651403509   -1.483981875008
 H   -2.086063122700    0.453938596491   -0.059131875008
