11
0 1 
 C   -0.196392578917   -0.269357347956   -0.488111180862
 C   -0.714392578917   -0.553357347956    0.923888819138
 C    0.893607421083    0.801642652044   -0.475111180862
 H    0.225607421083   -1.183357347956   -0.908111180862
 H   -1.021392578917    0.065642652044   -1.119111180862
 H   -1.199392578917    0.346642652044    1.305888819138
 H    0.139607421083   -0.763357347956    1.569888819138
 H    0.484607421083    1.723642652044   -0.058111180862
 H    1.714607421083    0.462642652044    0.161888819138
 H   -1.415467578917   -1.397217347956    1.003848819138
 H    1.276355421083    0.996262652044   -1.487843980862
