11
0 1 
 C    0.383912342460    0.244724291365    0.329064635887
 C    0.576912342460   -1.126275708635   -0.331935364113
 C   -0.946087657540    0.891724291365    0.020064635887
 H    0.502912342460    0.164724291365    1.411064635887
 H    1.170912342460    0.899724291365   -0.039935364113
 H    1.540912342460   -1.494275708635    0.005064635887
 H   -1.747087657540    0.373724291365    0.547064635887
 H   -0.913087657540    1.921724291365    0.371064635887
 H   -1.139087657540    0.906724291365   -1.051935364113
 H   -0.204457657540   -1.833942708635   -0.017814364113
 H    0.613512342460   -1.059529708635   -1.429298364113
