8
0 1 
 C    0.526741707055    0.504327047632    0.219620884196
 C   -0.525258292945   -0.506672952368   -0.219379115804
 H    1.526741707055    0.108327047632    0.041620884196
 H    0.405741707055    1.425327047632   -0.349379115804
 H    0.409741707055    0.723327047632    1.281620884196
 H   -1.511258292945   -0.093672952368   -0.002379115804
 H   -0.397898292945   -1.452152952368    0.328195884196
 H   -0.450731292945   -0.683222952368   -1.302558115804
