18
0 1 
 C   -0.028476279116   -2.005430069709    0.271361447508
 C    1.044523720884   -2.432430069709    1.295361447508
 C   -0.110476279116   -0.537430069709    0.009361447508
 C    0.994523720884    0.162569930291   -0.405638552492
 C   -1.313476279116    0.116569930291    0.096361447508
 C    0.924523720884    1.506569930291   -0.676638552492
 C   -1.406476279116    1.497569930291   -0.207638552492
 C   -0.269476279116    2.191569930291   -0.589638552492
 H    0.145523720884   -2.509430069709   -0.677638552492
 H   -1.002476279116   -2.338430069709    0.616361447508
 H    2.014523720884   -2.047430069709    0.979361447508
 H    1.943523720884   -0.341430069709   -0.518638552492
 H   -2.205476279116   -0.419430069709    0.391361447508
 H    1.823523720884    2.005569930291   -0.988638552492
 H   -2.358476279116    2.008569930291   -0.139638552492
 H   -0.320476279116    3.247569930291   -0.818638552492
 H    1.093243720884   -3.530840069709    1.328851447508
 H    0.828933720884   -2.022888069709    2.293261447508
