8
0 1 
 C   -0.711023266430    0.231917084980   -0.142423083193
 C    0.712976733570   -0.232082915020    0.143576916807
 H   -1.268023266430    0.350917084980    0.786576916807
 H   -0.698023266430    1.192917084980   -0.645423083193
 H   -1.197023266430   -0.511082915020   -0.769423083193
 H    1.145976733570   -0.627082915020   -0.772423083193
 H    0.659546733570   -1.016883915020    0.912496916807
 H    1.334286733570    0.613190084980    0.474456916807
