9
0 1 
 C    0.348234223532   -1.124394288873    0.860597113231
 C    0.050234223532    0.061605711127   -0.047402886769
 O    0.848234223532    1.013605711127   -0.155402886769
 N   -1.163765776468    0.048605711127   -0.638402886769
 H   -1.407765776468    0.827605711127   -1.234402886769
 H   -1.822765776468   -0.693394288873   -0.458402886769
 H   -0.390765776468   -1.910394288873    0.701597113231
 H    0.224234223532   -0.789394288873    1.891597113231
 H    1.360244223532   -1.541984288873    0.753597113231
