8
0 1 
 C    0.236067279789    0.658487499512   -0.295349733297
 C   -0.230932720211   -0.662512500488    0.295650266703
 H    1.095067279789    0.495487499512   -0.949349733297
 H   -0.568932720211    1.121487499512   -0.864349733297
 H    0.500067279789    1.368487499512    0.491650266703
 H   -1.072932720211   -0.460512500488    0.959650266703
 H    0.560967279789   -1.158432500488    0.876140266703
 H   -0.575372720211   -1.318592500488   -0.517319733297
