8
0 1 
 C    0.698981903799    0.206314759887   -0.223393501308
 C   -0.702018096201   -0.210685240113    0.212606498692
 H    0.934981903799   -0.187685240113   -1.207393501308
 H    0.775981903799    1.292314759887   -0.236393501308
 H    1.426981903799   -0.180685240113    0.487606498692
 H   -0.798018096201    0.129314759887    1.244606498692
 H   -0.814588096201   -1.304815240113    0.198266498692
 H   -1.489188096201    0.303594759887   -0.358253501308
