8
0 1 
 C    0.360213676771   -0.220600837767   -0.636959525755
 C   -0.362786323229    0.218399162233    0.641040474245
 H    0.137213676771   -1.265600837767   -0.861959525755
 H    0.056213676771    0.393399162233   -1.482959525755
 H    1.437213676771   -0.091600837767   -0.533959525755
 H   -0.024786323229    1.222399162233    0.897040474245
 H   -0.128356323229   -0.455060837767    1.478600474245
 H   -1.446866323229    0.222679162233    0.454646474245
