8
0 1 
 C    0.153889413098   -0.299926194025   -0.682389435147
 C   -0.154110586902    0.297073805975    0.684610564853
 H   -0.749110586902   -0.341926194025   -1.286389435147
 H    0.889889413098    0.317073805975   -1.195389435147
 H    0.552889413098   -1.307926194025   -0.569389435147
 H   -0.581110586902    1.285073805975    0.537610564853
 H   -0.878530586902   -0.337424234025    1.216236564853
 H    0.768606413098    0.419091905975    1.270874564853
