19
0 1 
 C   -2.921580724539    0.085256134158    0.559698673331
 C   -0.317580724539    0.199256134158    0.266698673331
 C   -1.617580724539   -0.321743865842   -0.062301326669
 C    0.628419275461   -0.452743865842   -0.573301326669
 C   -1.420580724539   -1.238743865842   -1.052301326669
 C    1.516419275461    1.430256134158    1.245698673331
 C    2.426419275461    0.769256134158    0.399698673331
 C    0.146419275461    1.153256134158    1.187698673331
 C    1.994419275461   -0.177743865842   -0.515301326669
 N   -0.080580724539   -1.319743865842   -1.364301326669
 H    1.884419275461    2.170256134158    1.943698673331
 H    3.478419275461    1.015256134158    0.444698673331
 H   -0.550580724539    1.664256134158    1.835698673331
 H    2.690419275461   -0.683743865842   -1.165301326669
 H   -2.954580724539    1.174256134158    0.589698673331
 H   -2.902580724539   -0.249743865842    1.587698673331
 H   -2.200580724539   -1.808743865842   -1.540301326669
 H    0.313419275461   -1.881743865842   -2.115301326669
 H   -3.815510724539   -0.283973865842    0.035718673331
