9
0 1 
 C    0.011481924260    0.558397156941   -0.107218289590
 C    0.235481924260   -0.520602843059   -1.163218289590
 O   -0.173518075740   -0.008602843059    1.177781710410
 H    0.869481924260    1.221397156941   -0.100218289590
 H   -0.873518075740    1.136397156941   -0.375218289590
 H    0.365481924260   -0.019602843059   -2.124218289590
 H   -1.069518075740   -0.383602843059    1.208781710410
 H   -0.636878075740   -1.187882843059   -1.224288289590
 H    1.158251924260   -1.080182843059   -0.950218289590
