8
0 1 
 C    0.394884052176    0.295107495321   -0.601063197326
 C   -0.394115947824   -0.295892504679    0.605936802674
 H    0.195884052176   -0.279892504679   -1.507063197326
 H    0.087884052176    1.328107495321   -0.766063197326
 H    1.458884052176    0.284107495321   -0.386063197326
 H   -0.129115947824    0.229107495321    1.522936802674
 H   -0.154815947824   -1.366702504679    0.684046802674
 H   -1.467865947824   -0.185380504679    0.394176802674
