15
0 1 
 C    1.815079641158    0.025330670479    0.005998034282
 C    2.175079641158    1.312330670479   -0.733001965718
 C    0.333079641158   -0.165669329521    0.140998034282
 C   -0.443920358842   -0.274669329521    1.248998034282
 C   -1.752920358842   -0.380669329521   -0.516001965718
 N   -0.506920358842   -0.234669329521   -0.954001965718
 N   -1.740920358842   -0.407669329521    0.809998034282
 H    2.219079641158   -0.827669329521   -0.540001965718
 H    2.262079641158    0.030330670479    0.998998034282
 H    1.752079641158    1.254330670479   -1.736001965718
 H   -0.111920358842   -0.258669329521    2.274998034282
 H   -2.634920358842   -0.477669329521   -1.137001965718
 H   -2.563920358842   -0.547669329521    1.398998034282
 H    3.266219641158    1.433150670479   -0.802471965718
 H    1.724929641158    2.167040670479   -0.206861965718
