11
0 1 
 C   -0.428571630611   -0.084112808167   -0.358793260009
 C    0.356428369389   -1.220112808167    0.313206739991
 C    0.041428369389    1.297887191833    0.033206739991
 H   -0.306571630611   -0.172112808167   -1.438793260009
 H   -1.497571630611   -0.175112808167   -0.165793260009
 H    1.421428369389   -0.990112808167    0.259206739991
 H    1.124428369389    1.383887191833   -0.056793260009
 H   -0.431571630611    2.033887191833   -0.617793260009
 H   -0.222571630611    1.496887191833    1.053206739991
 H    0.073313369389   -1.351432808167    1.368006739991
 H    0.204833369389   -2.150419808167   -0.253843260009
