8
0 1 
 C   -0.216176519278   -0.692502135175    0.221146749638
 C    0.211823480722    0.694497864825   -0.225853250362
 H   -1.044176519278   -1.038502135175   -0.397853250362
 H    0.618823480722   -1.387502135175    0.123146749638
 H   -0.531176519278   -0.666502135175    1.265146749638
 H    1.071823480722    0.990497864825    0.376146749638
 H   -0.602396519278    1.409017864825   -0.034761250362
 H    0.538933480722    0.669227864825   -1.275786250362
