11
0 1 
 C    0.096911007376    0.128756167257    0.542671358947
 C    0.324911007376   -1.263243832743   -0.035328641053
 C   -0.415088992624    1.136756167257   -0.475328641053
 H   -0.619088992624    0.064756167257    1.363671358947
 H    1.040911007376    0.493756167257    0.945671358947
 H    0.955911007376   -1.166243832743   -0.920328641053
 H   -1.394088992624    0.812756167257   -0.828328641053
 H   -0.544088992624    2.100756167257    0.018671358947
 H   -0.629836992624   -1.731163832743   -0.317292641053
 H    0.867239007376   -1.871553832743    0.703484358947
 H    0.242874007376    1.269926167257   -1.346734641053
