8
0 1 
 C    0.081659944880    0.126821596642   -0.746928601267
 C   -0.072340055120   -0.132178403358    0.745071398733
 H   -0.093340055120   -0.806178403358   -1.276928601267
 H   -0.674340055120    0.845821596642   -1.064928601267
 H    1.075659944880    0.520821596642   -0.963928601267
 H   -0.999340055120   -0.684178403358    0.913071398733
 H   -0.188340055120    0.849821596642    1.199071398733
 H    0.768729944880   -0.662325403358    1.215756398733
