7
-1 1 
 C   -1.441021738899   -0.092356019684   -0.125430815268
 C    0.081978261101    0.013643980316    0.010569184732
 O    0.666978261101   -0.823356019684    0.730569184732
 O    0.695978261101    0.908643980316   -0.614430815268
 H   -1.897021738899   -0.193356019684    0.861569184732
 H   -1.677021738899   -0.995356019684   -0.688430815268
 H   -1.875167738899    0.772340980316   -0.648700815268
