11
0 1 
 C   -0.183947684503   -0.321705905043   -0.456886078186
 C    0.835052315497   -0.796705905043    0.576113921814
 C   -0.666947684503    1.092294094957   -0.143886078186
 H    0.280052315497   -0.315705905043   -1.444886078186
 H   -1.048947684503   -0.985705905043   -0.481886078186
 H    0.377052315497   -0.871705905043    1.562113921814
 H    1.648052315497   -0.070705905043    0.630113921814
 H    0.193052315497    1.770294094957   -0.163886078186
 H   -1.349947684503    1.406294094957   -0.940886078186
 H    1.262535315497   -1.772465505043    0.301974921814
 H   -1.173208684503    1.150680094957    0.830942921814
