11
0 1 
 C    0.469744402189   -0.058510672014    0.304684368247
 C   -0.836255597811   -0.772510672014    0.652684368247
 C    0.395744402189    0.830489327986   -0.938315631753
 H    0.764744402189    0.559489327986    1.152684368247
 H    1.238744402189   -0.813510672014    0.142684368247
 H   -1.195255597811   -1.327510672014   -0.214315631753
 H   -0.374255597811    1.585489327986   -0.808315631753
 H   -1.603995597811   -0.049260672014    0.964909368247
 H   -0.662965597811   -1.521980672014    1.438980368247
 H    1.354224402189    1.349489327986   -1.086496631753
 H    0.130684402189    0.224129327986   -1.816992631753
