8
0 1 
 C    0.619376121962   -0.294643893785   -0.326403875306
 C   -0.617623878038    0.294356106215    0.325596124694
 H    1.141376121962    0.472356106215   -0.893403875306
 H    1.287376121962   -0.693643893785    0.438596124694
 H    0.330376121962   -1.107643893785   -0.996403875306
 H   -1.116623878038   -0.484643893785    0.905596124694
 H   -1.306953878038    0.687066106215   -0.436374875306
 H   -0.356414278038    1.129936106215    0.991608124694
