15
0 1 
 C    1.387492448248    1.140734096382    0.032210286098
 C    2.510492448248    0.563734096382   -0.825789713902
 C    0.184492448248    0.256734096382    0.134210286098
 C   -0.210507551752   -0.577265903618    1.133210286098
 C   -1.788507551752   -0.555265903618   -0.406789713902
 N   -0.820507551752    0.245734096382   -0.822789713902
 N   -1.445507551752   -1.060265903618    0.778210286098
 H    1.699492448248    1.390734096382    1.043210286098
 H    1.061492448248    2.050734096382   -0.475789713902
 H    2.067492448248    0.030734096382   -1.668789713902
 H    0.268492448248   -0.859265903618    2.057210286098
 H   -2.685507551752   -0.723265903618   -0.993789713902
 H   -2.001507551752   -1.697265903618    1.331210286098
 H    3.144282448248   -0.131325903618   -0.255529713902
 H    3.123142448248    1.389474096382   -1.216699713902
