8
0 1 
 C    0.577250646379    0.435927756043    0.249883308513
 C   -0.572749353621   -0.441072243957   -0.250116691487
 H    1.126250646379    0.852927756043   -0.589116691487
 H    0.162250646379    1.262927756043    0.826883308513
 H    1.254250646379   -0.131072243957    0.889883308513
 H   -1.233749353621    0.174927756043   -0.858116691487
 H   -0.195889353621   -1.275348243957   -0.860000691487
 H   -1.166709353621   -0.823108243957    0.593246308513
