6
0 1 
 C    0.708112687490   -0.160744011993   -0.001192206248
 O   -0.682887312510    0.103255988007    0.033807793752
 H   -0.804887312510    0.952255988007   -0.436192206248
 H    1.248112687490    0.550255988007    0.621807793752
 H    1.043112687490   -0.037744011993   -1.033192206248
 H    0.920202687490   -1.189564011993    0.325217793752
