16
0 1 
 C   -0.983926879583    2.290440000425    1.610624466772
 C    1.208073120417   -0.607559999575    0.337624466772
 C    0.760073120417    0.493440000425    1.067624466772
 C    0.468073120417   -1.061559999575   -0.760375533228
 C   -0.430926879583    1.148440000425    0.735624466772
 C   -0.740926879583   -0.446559999575   -1.063375533228
 C   -1.176926879583    0.644440000425   -0.326375533228
 O    0.793073120417   -2.164559999575   -1.487375533228
 H    2.131073120417   -1.100559999575    0.594624466772
 H    1.341073120417    0.854440000425    1.902624466772
 H    1.533073120417   -2.628559999575   -1.041375533228
 H   -1.338926879583   -0.827559999575   -1.876375533228
 H   -1.309926879583    1.845440000425    2.549624466772
 H   -1.861926879583    2.704440000425    1.123624466772
 H   -2.124926879583    1.103440000425   -0.578375533228
 H   -0.281826879583    3.098400000425    1.864104466772
