8
0 1 
 C    0.489425503005    0.159578811443   -0.550342160055
 C   -0.495574496995   -0.161421188557    0.547657839945
 H    0.004425503005    0.750578811443   -1.319342160055
 H    1.322425503005    0.729578811443   -0.139342160055
 H    0.856425503005   -0.762421188557   -0.998342160055
 H   -0.927574496995    0.757578811443    0.919657839945
 H    0.108425503005   -0.600421188557    1.336657839945
 H   -1.290912496995   -0.852957188557    0.232672539945
