8
0 1 
 C    0.231244993203   -0.702516100004   -0.186333616990
 C   -0.235755006797    0.702483899996    0.183666383010
 H   -0.406755006797   -1.123516100004   -0.964333616990
 H    1.258244993203   -0.658516100004   -0.556333616990
 H    0.198244993203   -1.344516100004    0.693666383010
 H    0.445244993203    1.085483899996    0.940666383010
 H   -1.249635006797    0.673723899996    0.609356383010
 H   -0.191645006797    1.367723899996   -0.691263616990
