15
0 1 
 C    1.298876624333   -2.086403473642    0.113153909112
 C   -1.012123375667    1.568596526358   -0.108846090888
 C   -0.208123375667    1.157596526358   -1.197846090888
 C   -1.030123375667    0.795596526358    1.072153909112
 C    0.541876624333   -0.011403473642   -1.098846090888
 C   -0.271123375667   -0.376403473642    1.146153909112
 C    0.515876624333   -0.784403473642    0.059153909112
 H   -1.610123375667    2.472596526358   -0.167846090888
 H   -0.167123375667    1.738596526358   -2.111846090888
 H   -1.627123375667    1.101596526358    1.923153909112
 H    1.153876624333   -0.333403473642   -1.926846090888
 H   -0.293123375667   -0.974403473642    2.049153909112
 H    1.235876624333   -2.457403473642    1.138153909112
 H    2.331876624333   -1.853403473642   -0.110846090888
 H    0.938866624333   -2.827763473642   -0.615396090888
