9
0 1 
 C    1.252026433625   -0.074196023476    0.741204646663
 C   -0.045973566375    0.055803976524   -0.032795353337
 O   -0.429973566375    1.144803976524   -0.456795353337
 N   -0.735973566375   -1.054196023476   -0.236795353337
 H   -1.633973566375   -0.980196023476   -0.690795353337
 H   -0.389973566375   -1.968196023476    0.042204646663
 H    2.066026433625    0.024803976524    0.025204646663
 H    1.317026433625   -1.064196023475    1.195204646663
 H    1.330496433625    0.685273976524    1.533064646663
