8
0 1 
 C    0.055855525450   -0.751928646301   -0.013038572926
 C   -0.052144474550    0.748071353699    0.012961427074
 H    0.699855525450   -1.069928646301    0.794961427074
 H   -0.933144474550   -1.190928646301    0.116961427074
 H    0.473855525450   -1.067928646301   -0.968038572926
 H   -0.480144474550    1.053071353699    0.966961427074
 H   -0.714144474550    1.055071353699   -0.795038572926
 H    0.909535525450    1.266571353699   -0.114888572926
