7
-1 1 
 C   -0.543213854484   -0.164602880934   -1.345177131621
 C    0.016786145516    0.042397119066    0.048822868379
 O    0.217786145516   -0.987602880934    0.742822868379
 O    0.309786145516    1.139397119066    0.554822868379
 H   -1.472213854484   -0.727602880934   -1.222177131621
 H    0.140786145516   -0.846602880934   -1.856177131621
 H   -0.773442854484    0.620204119066   -2.080757131621
