8
0 1 
 C    0.364023021081   -0.471938757712    0.463449899295
 C   -0.361976978919    0.477061242288   -0.467550100705
 H    1.413023021081   -0.194938757712    0.565449899295
 H   -0.096976978919   -0.444938757712    1.451449899295
 H    0.303023021081   -1.486938757712    0.072449899295
 H   -1.395976978919    0.143061242288   -0.567550100705
 H    0.126063021081    0.440801242288   -1.452692100705
 H   -0.373516978919    1.481961242288   -0.020287100705
