7
-1 1 
 C   -1.161101453774    0.795039905072   -0.307017592479
 C    0.071898546226   -0.043960094928    0.016982407521
 O    0.786898546226   -0.445960094928   -0.933017592479
 O    0.309898546226   -0.304960094928    1.222982407521
 H   -1.566101453774    1.225039905072    0.610982407521
 H   -1.925101453774    0.147039905072   -0.737017592479
 H   -0.946810453774    1.602589905072   -1.022517592479
