8
0 1 
 C    0.408159978422    0.419230005821    0.517789039168
 C   -0.398840021578   -0.422769994179   -0.521210960832
 H    1.175159978422    1.013230005821    0.022789039168
 H   -0.274840021578    1.089230005821    1.036789039168
 H    0.856159978422   -0.257769994179    1.243789039168
 H   -0.834840021578    0.291230005821   -1.218210960832
 H   -1.211840021578   -0.908769994179    0.019789039168
 H    0.179228978422   -1.184999994179   -1.064200960832
