8
0 1 
 C   -0.072720246129    0.740962433324   -0.156179900305
 C    0.070279753871   -0.741037566676    0.158820099695
 H   -0.423720246129    1.281962433324    0.722820099695
 H    0.894279753871    1.144962433324   -0.454179900305
 H   -0.769720246129    0.884962433324   -0.980179900305
 H    0.260279753871   -1.286037566676   -0.763179900305
 H   -0.856240246129   -1.126847566676    0.609052099695
 H    0.924179753871   -0.898107566676    0.834231099695
