7
-1 1 
 C    0.900121941841   -0.822618631621   -0.798576092691
 C   -0.054878058159    0.043381368379    0.037423907309
 O    0.315121941841    0.350381368379    1.201423907309
 O   -1.165878058159    0.429381368379   -0.440576092691
 H    1.749121941841   -1.121618631621   -0.184576092691
 H    1.265121941841   -0.238618631621   -1.645576092691
 H    0.423698941841   -1.736918631621   -1.182146092691
