8
0 1 
 C   -0.561334214994    0.364549383902   -0.366341957375
 C    0.559665785006   -0.368450616098    0.365658042625
 H   -1.499334214994   -0.186450616098   -0.274341957375
 H   -0.689334214994    1.354549383902    0.067658042625
 H   -0.316334214994    0.494549383902   -1.417341957375
 H    1.491665785006    0.172549383902    0.205658042625
 H    0.674441785006   -1.392110616098   -0.020276957375
 H    0.358760785006   -0.396635616098    1.446788042625
