7
-1 1 
 C   -0.031447176311    0.494876046060   -1.356405439969
 C   -0.007447176311   -0.025123953940    0.081594560031
 O   -0.788447176311    0.464876046060    0.937594560031
 O    0.820552823689   -0.934123953940    0.343594560031
 H    0.114552823689   -0.345123953940   -2.039405439969
 H    0.802552823689    1.184876046060   -1.491405439969
 H   -0.963537176311    1.014295046060   -1.623635439969
