8
0 1 
 C   -0.206696128729    0.710377024728    0.197442370619
 C    0.210303871271   -0.712622975272   -0.199557629381
 H    0.659303871271    1.373377024728    0.216442370619
 H   -0.940696128729    1.114377024728   -0.494557629381
 H   -0.673696128729    0.714377024728    1.183442370619
 H   -0.647696128729   -1.371622975272   -0.065557629381
 H    1.038433871271   -1.053152975272    0.439384170619
 H    0.521393871271   -0.750612975272   -1.253967629381
