8
0 1 
 C    0.700070789237   -0.185181102995    0.231329132962
 C   -0.702929210763    0.182818897005   -0.232670867038
 H    1.380070789237    0.633818897005    0.001329132962
 H    0.702070789237   -0.351181102995    1.305329132962
 H    1.041070789237   -1.090181102995   -0.272670867038
 H   -0.999929210763    1.105818897005    0.262329132962
 H   -0.675009210763    0.340338897005   -1.320975867038
 H   -1.414239210763   -0.610488102995    0.040635132962
