8
0 1 
 C   -0.537922183314    0.399424351095   -0.353435690053
 C    0.538077816686   -0.407575648905    0.349564309947
 H   -1.392922183314   -0.222575648905   -0.621435690053
 H   -0.891922183314    1.189424351095    0.312564309947
 H   -0.138922183314    0.870424351095   -1.252435690053
 H    1.291077816686    0.291424351095    0.714564309947
 H    1.034456816686   -1.118025648905   -0.327835690053
 H    0.096378816686   -0.913615648905    1.220674309947
