8
0 1 
 C    0.332407258205    0.321267512095    0.628956412126
 C   -0.326592741795   -0.317732487905   -0.632043587874
 H    1.395407258205    0.484267512095    0.447956412126
 H   -0.144592741795    1.276267512095    0.851956412126
 H    0.214407258205   -0.343732487905    1.484956412126
 H   -1.372592741795   -0.507732487905   -0.380043587874
 H    0.141129258205   -1.288575487905   -0.852723587874
 H   -0.302990741795    0.337414512095   -1.515343587874
