11
0 1 
 C    0.049076355829   -0.094869397609   -0.559925541849
 C    0.774076355829    1.053130602391    0.158074458151
 C   -0.819923644171   -0.957869397609    0.369074458151
 H   -0.581923644171    0.313130602391   -1.349925541849
 H    0.784076355829   -0.751869397609   -1.023925541849
 H    1.376076355829    0.641130602391    0.971074458151
 H   -1.705923644171   -0.411869397609    0.689074458151
 H   -1.147923644171   -1.843869397609   -0.175925541849
 H   -0.240923644171   -1.272869397609    1.238074458151
 H    1.438506155829    1.572660602391   -0.548055541849
 H    0.039587755829    1.748890602391    0.589874458151
