19
0 1 
 C    0.363287260391   -2.213209415721   -1.196818996710
 C   -0.831712739609   -2.584209415721   -2.068818996710
 C    0.248287260391   -0.899209415721   -0.464818996710
 C   -0.798712739609   -0.664209415721    0.438181003290
 C    1.193287260391    0.123790584279   -0.619818996710
 C   -0.919712739609    0.527790584279    1.140181003290
 C    1.072287260391    1.326790584279    0.075181003290
 C    0.021287260391    1.537790584279    0.968181003290
 O   -0.133712739609    2.713790584279    1.664181003290
 H    0.502287260391   -2.991209415721   -0.444818996710
 H    1.262287260391   -2.199209415721   -1.813818996710
 H   -1.739712739609   -2.493209415721   -1.473818996710
 H   -1.540712739609   -1.434209415721    0.581181003290
 H    2.024287260391   -0.017209415721   -1.299818996710
 H   -1.744712739609    0.654790584279    1.828181003290
 H    1.804287260391    2.109790584279   -0.066818996710
 H   -0.945712739609    2.697790584279    2.172181003290
 H   -0.733112739609   -3.631419415721   -2.390748996710
 H   -0.914192739609   -1.894669415721   -2.921886996710
