15
0 1 
 C    0.206150901475   -1.987736014287   -1.441184538553
 C   -1.131849098525   -0.040736014287   -0.484184538553
 C    0.068150901475   -0.758736014287   -0.564184538553
 C   -1.234849098525    1.088263985713    0.331815461447
 C   -0.141849098525    1.502263985713    1.090815461447
 C    1.151150901475   -0.336736014287    0.209815461447
 C    1.052150901475    0.789263985713    1.029815461447
 H   -2.010849098525   -0.355736014287   -1.024184538553
 H   -2.170849098525    1.623263985713    0.391815461447
 H    0.134150901475   -2.874736014287   -0.812184538553
 H    1.186150901475   -1.969736014287   -1.889184538553
 H   -0.220849098525    2.376263985713    1.724815461447
 H    2.078150901475   -0.884736014287    0.185815461447
 H    1.900150901475    1.103263985713    1.623815461447
 H   -0.527615098525   -2.064185014287   -2.257115538553
