9
0 1 
 C    0.628904214654    0.782278586769    1.037359843248
 C   -0.083095785346   -0.015721413231   -0.024640156752
 O   -1.305095785346   -0.087721413231   -0.073640156752
 N    0.700904214654   -0.639721413231   -0.890640156752
 H    0.985904214654    1.689278586769    0.557359843248
 H    1.486904214654    0.213278586769    1.385359843248
 H    0.282904214654   -1.194721413231   -1.618640156752
 H    1.704904214654   -0.613721413231   -0.745640156752
 H    0.014744214654    1.059336586769    1.906869843248
