15
0 1 
 C   -1.825482509688    0.990628326793    1.305022389972
 C   -0.477482509688    0.771628326793   -0.813977610028
 C   -0.692482509688    0.385628326793    0.514022389972
 C    0.561517490312    0.212628326793   -1.560977610028
 C    1.368517490312   -0.747371673207   -0.994977610028
 C    0.141517490312   -0.583371673207    1.073022389972
 C    1.164517490312   -1.146371673207    0.322022389972
 H   -1.115482509688    1.518628326793   -1.266977610028
 H    0.726517490312    0.529628326793   -2.578977610028
 H   -2.145482509688    0.286628326793    2.071022389972
 H   -2.661482509688    1.098628326793    0.614022389972
 H    2.160517490312   -1.191371673207   -1.580977610028
 H   -0.020482509688   -0.919371673207    2.083022389972
 H    1.797517490312   -1.905371673207    0.761022389972
 H   -1.606672509688    1.970958326793    1.753442389972
