8
1 1 
 C   -0.594344578515   -0.275791592585   -0.428866155801
 N    0.525655421485    0.243208407415    0.380133844199
 H    1.198655421485   -0.484791592585    0.617133844199
 H    1.020655421485    0.983208407415   -0.100866155801
 H    0.204655421485    0.614208407415    1.264133844199
 H   -0.256344578515   -0.463791592585   -1.453866155801
 H   -1.394344578515    0.471208407415   -0.475866155801
 H   -1.000158578515   -1.215461592585   -0.025946155801
