8
0 1 
 C    0.135552660429   -0.320852097517    0.675756593812
 C   -0.135447339571    0.324147902483   -0.675243406188
 H   -0.115447339571    0.361147902483    1.487756593812
 H   -0.480447339571   -1.209852097517    0.780756593812
 H    1.192552660429   -0.583852097517    0.756756593812
 H    0.212552660429   -0.349852097517   -1.461243406188
 H    0.407032660429    1.277627902483   -0.756393406188
 H   -1.217497339571    0.465537902483   -0.813743406188
