11
0 1 
 C   -0.481041349603   -0.245682512288    0.299375104909
 C   -0.059041349603   -0.580682512288   -1.114624895091
 C    0.505958650397    0.802317487712    0.838375104909
 H   -1.490041349603    0.171317487712    0.290375104909
 H   -0.464041349603   -1.139682512288    0.926375104909
 H    0.032958650397    0.363317487712   -1.659624895091
 H    1.503958650397    0.378317487712    0.909375104909
 H    0.528958650397    1.663317487712    0.168375104909
 H   -0.828111349603   -1.204612512288   -1.593424895091
 H    0.915258650397   -1.089522512288   -1.157264895091
 H    0.207368650397    1.143877487712    1.840465104909
