11
0 1 
 C    0.248847769269   -0.087936293324   -0.505588704331
 C   -1.265152230731    0.006063706676   -0.325588704331
 C    1.029847769269    0.072063706676    0.799411295669
 H    0.477847769269   -1.057936293324   -0.952588704331
 H    0.576847769269    0.691063706676   -1.193588704331
 H   -1.484152230731    0.975063706676    0.133411295669
 H    1.091847769269    1.132063706676    1.050411295669
 H    0.528847769269   -0.446936293324    1.615411295669
 H   -1.615342230731   -0.805772293324    0.328850295669
 H   -1.776252230731   -0.017792293324   -1.299349404331
 H    2.039097769269   -0.352961293324    0.695676295669
