8
0 1 
 C    0.735867762909   -0.173860296259   -0.119694608797
 C   -0.737132237091    0.166139703741    0.119305391203
 H    0.839867762909   -0.887860296259   -0.935694608797
 H    1.270867762909    0.737139703741   -0.388694608797
 H    1.171867762909   -0.590860296259    0.787305391203
 H   -1.157132237091    0.570139703741   -0.801694608797
 H   -0.771132237091    0.949139703741    0.875305391203
 H   -1.339282937091   -0.685770746259    0.468107391203
