8
0 1 
 C    0.018564645364    0.283111957300   -0.746336177650
 C   -0.022435354636   -0.277888042700    0.741663822350
 H   -0.793435354636    1.000111957300   -0.885336177650
 H    0.971564645364    0.787111957300   -0.907336177650
 H   -0.105435354636   -0.533888042700   -1.455336177650
 H    0.764564645364   -1.025888042700    0.807663822350
 H   -0.977245354636   -0.767863042700    0.983063822350
 H    0.186074645364    0.478214957300    1.512913822350
