15
0 1 
 C    1.570304969035   -1.820853608144    0.483094209259
 C   -1.509695030965    0.082146391856   -0.741905790741
 C   -0.599695030965   -0.960853608144   -0.490905790741
 C   -1.196695030965    1.383146391856   -0.337905790741
 C    0.615304969035   -0.701853608144    0.159094209259
 C    0.015304969035    1.646146391856    0.296094209259
 C    0.910304969035    0.604146391856    0.556094209259
 H   -2.449695030965   -0.126853608144   -1.234905790741
 H   -0.845695030965   -1.967853608144   -0.793905790741
 H   -1.884695030965    2.194146391856   -0.515905790741
 H    0.254304969035    2.656146391856    0.603094209259
 H    1.006304969035   -2.611853608144    0.982094209259
 H    2.324304969035   -1.465853608144    1.186094209259
 H    1.834304969035    0.819146391856    1.069094209259
 H    2.081091969035   -2.259703608144   -0.386685790741
