8
0 1 
 C   -0.600092698632   -0.061093458599    0.484651272953
 C    0.595907301368    0.058906541402   -0.484348727047
 H   -1.138092698632   -0.989093458598    0.295651272953
 H   -0.250092698632   -0.054093458599    1.517651272953
 H   -1.276092698632    0.781906541401    0.336651272953
 H    1.124907301368    0.980906541401   -0.284348727047
 H    0.263111301368    0.056786541401   -1.532798727047
 H    1.326094301368   -0.750373458598   -0.336408727047
