9
0 1 
 C   -0.549300959132   -1.144568915348    0.740478164996
 C    0.035699040868    0.077431084652    0.019478164996
 O    0.606699040868    0.982431084652    0.630478164996
 N   -0.073300959132    0.080431084652   -1.305521835004
 H   -0.222300959132   -2.011568915348    0.168478164996
 H   -1.640300959132   -1.112568915348    0.696478164996
 H    0.266699040868    0.899431084652   -1.790521835004
 H   -0.706300959132   -0.549568915348   -1.767521835004
 H   -0.192710959132   -1.228928915348    1.777649164996
