7
-1 1 
 C    0.591450230304   -0.764066624199   -1.068237343359
 C   -0.027549769696    0.042933375801    0.063762656641
 O   -1.041549769696    0.729933375801   -0.183237343359
 O    0.480450230304   -0.007066624199    1.193762656641
 H    0.168450230304   -0.412066624199   -2.010237343359
 H    0.337450230304   -1.817066624199   -0.945237343359
 H    1.684890230304   -0.656876624199   -1.122187343359
