8
0 1 
 C    0.193902058310    0.474797452383    0.552703440814
 C   -0.194097941690   -0.479202547617   -0.556296559186
 H    0.535902058310   -0.078202547617    1.429703440814
 H    1.000902058310    1.123797452383    0.208703440814
 H   -0.661097941690    1.092797452383    0.818703440814
 H   -0.538097941690    0.097797452383   -1.412296559186
 H   -1.009587941690   -1.096718547617   -0.151766559186
 H    0.674312058310   -1.087020547617   -0.850264559186
