8
0 1 
 C   -0.749615237702    0.013702101019   -0.080875789432
 C    0.751384762298   -0.005297898981    0.082124210568
 H   -1.022615237702   -0.162297898981   -1.121875789432
 H   -1.193615237702   -0.787297898981    0.509124210568
 H   -1.155615237702    0.968702101019    0.255124210568
 H    1.108384762298   -0.934297898981   -0.361875789432
 H    1.219837762298    0.839942101019   -0.443355789432
 H    1.022553762298   -0.024817898981    1.147994210568
