8
0 1 
 C   -0.179252691485    0.117466507234   -0.733818065145
 C    0.180747308515   -0.126533492766    0.729181934855
 H    0.181747308515   -0.705533492766   -1.345818065145
 H   -1.260252691485    0.216466507234   -0.837818065145
 H    0.281747308515    1.040466507234   -1.087818065145
 H    0.022747308515    0.812466507234    1.250181934855
 H    1.238327308515   -0.399643492766    0.859331934855
 H   -0.482112691485   -0.856263492766    1.217141934855
