8
0 1 
 C   -0.261224835592    0.684262317946    0.203526816101
 C    0.259775164408   -0.685737682054   -0.206473183899
 H   -1.329224835592    0.751262317946    0.002526816101
 H   -0.095224835592    0.835262317946    1.269526816101
 H    0.267775164408    1.463262317946   -0.345473183899
 H    1.316775164408   -0.726737682054    0.057526816101
 H    0.132895164408   -0.829818682054   -1.289590183899
 H   -0.275734835592   -1.475663682054    0.340564816101
