6
0 1 
 C    0.318100382146   -0.207383590923   -0.613121227985
 O   -0.249899617854    0.210616409077    0.603878772015
 H   -1.212899617854    0.060616409077    0.532878772015
 H    1.031100382146    0.540616409077   -0.959121227985
 H   -0.466899617854   -0.299383590923   -1.363121227985
 H    0.827220382146   -1.175203590923   -0.494301227985
