8
0 1 
 C    0.441319058967    0.590922837845   -0.227835752165
 C   -0.444680941033   -0.588077162155    0.227164247835
 H    0.476319058967    1.373922837845    0.531164247835
 H    1.456319058967    0.224922837845   -0.356835752165
 H    0.081319058967    1.006922837845   -1.171835752165
 H   -0.066680941033   -0.963077162155    1.175164247835
 H   -1.493387941033   -0.278307162155    0.346574247835
 H   -0.413858941033   -1.398267162155   -0.516235752165
