8
0 1 
 C    0.031754777751   -0.716049334057   -0.254642579913
 C   -0.026245222249    0.716950665943    0.255357420087
 H    0.916754777751   -1.220049334057    0.137357420087
 H   -0.856245222249   -1.257049334057    0.077357420087
 H    0.045754777751   -0.741049334057   -1.344642579913
 H   -0.857245222249    1.212950665943   -0.243642579913
 H    0.904144777751    1.257475665943    0.026865420087
 H   -0.218765222249    0.736989665943    1.338193420087
