6
0 1 
 C   -0.339223127988   -0.497086250367   -0.405865785355
 O    0.271776872012    0.485913749633    0.414134214645
 H    1.199776872012    0.486913749633    0.107134214645
 H    0.377776872012   -1.296086250367   -0.596865785355
 H   -1.209256127988   -0.913315250367    0.123091214645
 H   -0.642522127988   -0.070595250367   -1.373395785355
