9
0 1 
 C    0.503388234079    0.461016783299   -1.323298345845
 C   -1.334611765921   -0.375983216701    0.565701654155
 S    0.423388234079   -0.039983216701    0.385701654155
 H   -0.239611765921    1.232016783299   -1.527298345845
 H    1.498388234079    0.845016783299   -1.548298345845
 H    0.295388234079   -0.394983216701   -1.964298345845
 H   -1.452611765921   -1.110983216701    1.362701654155
 H   -1.697611765921   -0.821983216701   -0.361298345845
 H   -1.938201765921    0.506856783299    0.823131654155
