8
0 1 
 C    0.287283459758    0.617875544084    0.356555908226
 C   -0.292716540242   -0.615124455916   -0.357444091774
 H   -0.519716540242    1.227875544084    0.766555908226
 H    0.932283459758    0.291875544084    1.173555908226
 H    0.885283459758    1.218875544084   -0.329444091774
 H    0.530283459758   -1.176124455916   -0.792444091774
 H   -0.973341740242   -0.308414455916   -1.165324091774
 H   -0.790101340242   -1.286844455916    0.357675908226
