8
0 1 
 C   -0.595018150857   -0.478572540086   -0.072296195038
 C    0.599981849143    0.474427459914    0.073703804962
 H   -0.270018150857   -1.512572540086   -0.011296195038
 H   -1.316018150857   -0.306572540086    0.717703804962
 H   -1.086018150857   -0.315572540086   -1.032296195038
 H    0.195981849143    1.488427459914    0.071703804962
 H    1.281633849143    0.378377459914   -0.784274195038
 H    1.135336849143    0.317267459914    1.021698804962
