19
0 1 
 C   -0.397156850434    1.572102232931    2.484815009474
 C   -0.260156850434    0.007102232931   -0.925184990526
 C    0.110843149566    0.011102232931    0.446815009474
 C   -0.503156850434    1.158102232931    1.053815009474
 C   -1.196156850434    1.788102232931    0.064815009474
 C    0.167843149566   -0.973897767069   -1.812184990526
 C    0.985843149566   -1.976897767069   -1.316184990526
 C    0.938843149566   -1.014897767069    0.921815009474
 C    1.364843149566   -2.003897767069    0.034815009474
 N   -1.056156850434    1.103102232931   -1.120184990526
 H   -1.370156850434    1.444102232931   -2.033184990526
 H   -0.105156850434   -0.930897767069   -2.856184990526
 H   -1.759156850434    2.705102232931    0.194815009474
 H    1.401843149566   -2.710897767069   -1.982184990526
 H    1.267843149566   -1.013897767069    1.946815009474
 H   -0.375156850434    0.684102232931    3.107815009474
 H   -1.294156850434    2.140102232931    2.725815009474
 H    2.008843149566   -2.785897767069    0.397815009474
 H    0.473693149566    2.204730232931    2.711525009474
