8
0 1 
 C    0.512752143326   -0.454911908070    0.331203671731
 C   -0.516247856674    0.457088091930   -0.323796328269
 H    0.384752143326   -0.469911908070    1.412203671731
 H    0.414752143326   -1.468911908070   -0.053796328269
 H    1.508752143326   -0.086911908070    0.087203671731
 H   -0.320247856674    0.474088091930   -1.394796328269
 H   -0.418977856674    1.483358091930    0.060013671731
 H   -1.527407856674    0.042378091930   -0.199026328269
