11
0 1 
 C    0.515555804067   -0.219663031416    0.182862250887
 C    0.260555804067    1.285336968584    0.033862250887
 C   -0.733444195933   -1.079663031416   -0.208137749113
 H    1.357555804067   -0.503663031416   -0.450137749113
 H    0.755555804067   -0.458663031416    1.217862250887
 H   -0.728444195933    1.484336968584    0.449862250887
 H   -0.986444195933   -0.921663031416   -1.253137749113
 H   -0.503444195933   -2.134663031416   -0.058137749113
 H   -1.581444195933   -0.812663031416    0.422862250887
 H    0.979715804067    1.908656968584    0.585479250887
 H    0.198915804067    1.604886968584   -1.016893749113
