11
0 1 
 C   -0.061601423185    0.100845225218    0.561959889254
 C    1.149398576815    0.540845225218   -0.240040110746
 C   -1.092601423185   -0.641154774782   -0.285040110746
 H    0.238398576815   -0.454154774782    1.423959889254
 H   -0.533601423185    1.006845225218    0.942959889254
 H    0.930398576815    1.470845225218   -0.767040110746
 H    1.395398576815   -0.235154774782   -0.965040110746
 H   -1.578601423185    0.063845225218   -0.970040110746
 H   -0.562601423185   -1.382154774782   -0.894040110746
 H    2.002056576815    0.673805225218    0.442086889254
 H   -1.834244423185   -1.150254774782    0.348033889254
