8
0 1 
 C   -0.357607025738    0.659710574634    0.104789821184
 C    0.358392974262   -0.659289425366   -0.112210178816
 H   -1.432607025738    0.505710574634    0.068789821184
 H   -0.118607025738    1.048710574634    1.093789821184
 H   -0.039607025738    1.386710574634   -0.640210178816
 H   -0.040607025738   -1.374289425366    0.607789821184
 H    0.189805974262   -1.042376425366   -1.129472178816
 H    1.432263974262   -0.529480425366    0.087665821184
