11
0 1 
 C    0.360967732633   -0.231930183067    0.364559827088
 C    0.252967732633   -0.687930183067   -1.094440172912
 C   -0.595032267367    0.905069816933    0.748559827088
 H    0.168967732633   -1.076930183067    1.023559827088
 H    1.386967732633    0.085069816933    0.555559827088
 H    0.548967732633    0.135069816933   -1.746440172912
 H   -1.624032267367    0.570069816933    0.629559827088
 H   -0.449032267367    1.142069816933    1.803559827088
 H   -0.768772267367   -1.004500183067   -1.351001172912
 H    0.972379732633   -1.496190183067   -1.292351172912
 H   -0.460523267367    1.821449816933    0.155139827088
