9
0 1 
 C    0.218597149681   -1.087214505728   -0.940570626558
 C   -0.058402850319    0.043785494272    0.030429373442
 O   -1.200402850319    0.346785494272    0.348429373442
 N    0.975597149681    0.667785494272    0.526429373442
 H    0.786597149681    1.422785494272    1.181429373442
 H    1.909597149681    0.384785494272    0.290429373442
 H    0.203597149681   -2.015214505728   -0.368570626558
 H    1.217597149681   -0.987214505728   -1.366570626558
 H   -0.528818850319   -1.163394505728   -1.744042626558
