8
0 1 
 C   -0.195253747580   -0.619762938935    0.416046544352
 C    0.199746252420    0.618237061065   -0.417953455648
 H    0.628746252420   -1.332762938935    0.455046544352
 H   -0.452253747580   -0.330762938935    1.435046544352
 H   -1.050253747580   -1.133762938935   -0.020953455648
 H   -0.671253747580    1.255237061065   -0.559953455648
 H    0.564154252420    0.321890061065   -1.412631455648
 H    0.927369252420    1.238330061065    0.126150544352
