9
0 1 
 C   -0.179540271607    0.096807093602   -1.474399136618
 C    0.958459728393    0.583807093602    0.983600863382
 S   -0.394540271607   -0.347192906398    0.248600863382
 H    0.800459728393   -0.224192906398   -1.828399136618
 H   -0.948540271607   -0.396192906398   -2.068399136618
 H   -0.270540271607    1.177807093602   -1.589399136618
 H    0.763459728393    0.644807093602    2.053600863382
 H    0.960459728393    1.596807093602    0.579600863382
 H    1.936569728393    0.111297093602    0.810274863382
