9
0 1 
 C   -0.045633331115    1.060936744171   -0.999262608421
 C   -0.048633331115   -0.046063255829    0.044737391579
 O   -1.102633331115   -0.490063255829    0.496737391579
 N    1.131366668885   -0.497063255829    0.442737391579
 H   -0.915633331115    0.896936744171   -1.632262608421
 H    0.817366668885    0.977936744171   -1.655262608421
 H    1.166366668885   -1.240063255829    1.126737391579
 H    1.978366668885   -0.100063255829    0.052737391579
 H   -0.144063331115    2.065358744171   -0.561712608421
