7
-1 1 
 C    1.107133430887   -0.817822363626    0.482595314790
 C   -0.059866569113    0.046177636374   -0.022404685210
 O    0.175133430887    1.173177636374   -0.528404685210
 O   -1.225866569113   -0.400822363626    0.070595314790
 H    1.789133430887   -0.204822363626    1.075595314790
 H    1.654133430887   -1.198822363626   -0.381404685210
 H    0.763003430887   -1.666352363626    1.092165314790
