8
0 1 
 C    0.600332095186    0.493275254476    0.163983358519
 C   -0.605667904814   -0.490724745524   -0.159016641481
 H    0.888332095186    0.412275254476    1.211983358519
 H    1.456332095186    0.217275254476   -0.451016641481
 H    0.312332095186    1.520275254476   -0.059016641481
 H   -0.323667904814   -1.498724745524    0.138983358519
 H   -0.727667904814   -0.480724745524   -1.240016641481
 H   -1.542127904814   -0.200744745524    0.339945358519
