7
-1 1 
 C   -0.266154805270   -1.399801698276   -0.087471946805
 C    0.026845194730    0.082198301724    0.002528053195
 O    0.132845194730    0.744198301724   -1.055471946805
 O    0.115845194730    0.577198301724    1.136528053195
 H   -1.214154805270   -1.608801698276    0.412528053195
 H    0.485845194730   -1.961801698276    0.449528053195
 H   -0.369168805270   -1.712441698276   -1.137062946805
