11
1 1 
 C   -0.406076643167   -0.046124185352   -0.457157959833
 C    0.815923356833   -0.892124185352   -0.410157959833
 N   -0.387076643167    0.820875814648    0.737842040167
 H   -0.392076643167    0.562875814648   -1.369157959833
 H   -1.298076643167   -0.681124185352   -0.479157959833
 H    0.740923356833   -1.529124185352    0.471842040167
 H    1.695923356833   -0.247124185352   -0.320157959833
 H   -1.202076643167    1.425875814648    0.760842040167
 H   -0.368076643167    0.293875814648    1.604842040167
 H    0.422923356833    1.433875814648    0.733842040167
 H    0.898740356833   -1.493104185352   -1.327747959833
