15
0 1 
 C    2.072340319718   -0.874761489752    0.943522978415
 C   -0.368659680282    0.861238510248   -1.384477021585
 C    0.816340319718    0.360238510248   -0.846477021585
 C   -1.576659680282    0.665238510248   -0.715477021585
 C    0.803340319718   -0.332761489752    0.363522978415
 C   -1.596659680282   -0.029761489752    0.492522978415
 C   -0.407659680282   -0.528761489752    1.027522978415
 H   -0.355659680282    1.390238510248   -2.324477021585
 H    1.743340319718    0.511238510248   -1.380477021585
 H   -2.496659680282    1.050238510248   -1.134477021585
 H   -2.528659680282   -0.175761489752    1.019522978415
 H    2.595340319718   -1.441761489752    0.181522978415
 H    1.805340319718   -1.583761489752    1.730522978415
 H   -0.431659680282   -1.077761489752    1.956522978415
 H    2.736028319718   -0.109461489752    1.372289978415
