10
-1 1 
 C   -0.087488137658    1.081626646618    0.054691345682
 C    1.384511862342    1.402626646618    0.140691345682
 C   -0.351488137658   -0.411373353382   -0.049308654318
 O    0.488511862342   -1.240373353382    0.367691345682
 O   -1.461488137658   -0.784373353382   -0.517308654318
 H   -0.584488137658    1.473626646618    0.945691345682
 H   -0.520488137658    1.567626646618   -0.822308654318
 H    1.889511862342    0.952626646618   -0.715308654318
 H    1.791511862342    0.979626646618    1.052691345682
 H    1.607461862342    2.479266646618    0.174491345682
