9
0 1 
 C    0.091940982992    0.351583864120   -0.422016585214
 C    0.432940982992    0.676583864120    1.030983414786
 O   -0.518059017008   -0.923416135880   -0.525016585214
 H   -0.579059017008    1.114583864120   -0.820016585214
 H    1.009940982992    0.353583864120   -1.008016585214
 H    0.879940982992    1.666583864120    1.037983414786
 H   -0.009059017008   -1.410416135880   -1.212016585214
 H    1.149202982992   -0.051048135880    1.440273414786
 H   -0.478674017008    0.739779864120    1.643323414786
