16
0 1 
 C   -0.300685288967    2.830147119290   -0.695965929873
 C   -1.082685288967    0.435147119290   -0.762965929873
 C   -0.144685288967    1.374147119290   -0.341965929873
 C   -0.943685288967   -0.905852880710   -0.423965929873
 C    0.943314711033    0.948147119290    0.411034070127
 C    0.151314711033   -1.319852880710    0.337034070127
 C    1.092314711033   -0.392852880710    0.754034070127
 O    0.299314711033   -2.633852880710    0.681034070127
 H   -1.932685288967    0.750147119290   -1.353965929873
 H   -1.656685288967   -1.627852880710   -0.793965929873
 H   -1.167685288967    2.950147119290   -1.346965929873
 H    0.580314711033    3.141147119290   -1.258965929873
 H    1.684314711033    1.665147119290    0.740034070127
 H    1.937314711033   -0.717852880710    1.344034070127
 H   -0.386685288967   -3.193852880710    0.285034070127
 H   -0.417515288967    3.482397119290    0.182054070127
