9
0 1 
 C   -0.285335519136   -0.163750778102    0.429563251289
 C    0.544664480864   -1.130750778102   -0.431436748711
 O   -0.217335519136    1.168249221898   -0.038436748711
 H   -1.324335519136   -0.490750778102    0.423563251289
 H    0.083664480864   -0.204750778102    1.455563251289
 H    0.419664480864   -2.127750778102   -0.005436748711
 H   -0.597335519136    1.741249221898    0.639563251289
 H    1.615544480864   -0.879700778102   -0.417947748711
 H    0.164284480864   -1.165850778102   -1.462978748711
