8
0 1 
 C   -0.439358912223    0.215946857559   -0.598738324156
 C    0.441641087777   -0.224053142441    0.602261675844
 H   -0.683358912223   -0.641053142441   -1.228738324156
 H   -1.362358912223    0.659946857559   -0.230738324156
 H    0.111641087777    0.954946857559   -1.175738324156
 H    0.685641087777    0.656946857559    1.190261675844
 H    1.361021087777   -0.632982142441    0.157834675844
 H   -0.139758912223   -0.901285142441    1.245166675844
