12
0 1 
 C    0.154358075224   -0.339734039719    0.050567382730
 C   -0.950641924776   -0.201734039719    1.121567382730
 C   -0.407641924776   -0.258734039719   -1.370432617270
 O    1.103358075224    0.704265960281    0.238567382730
 H    0.650358075224   -1.300734039719    0.167567382730
 H   -1.614641924776   -1.057734039719    1.010567382730
 H   -0.864641924776    0.716265960281   -1.541432617270
 H    0.389358075224   -0.411734039719   -2.099432617270
 H   -1.164641924776   -1.028734039719   -1.515432617270
 H    1.466358075224    0.946265960281   -0.621432617270
 H   -1.516971924776    0.737855960281    1.041312382730
 H   -0.521331924776   -0.250794039719    2.133144382730
