7
-1 1 
 C   -0.864526215637    1.055058759868   -0.456851960718
 C    0.050473784363   -0.059941240132    0.029148039282
 O   -0.439526215637   -0.960941240132    0.745148039282
 O    1.257473784363   -0.036941240132   -0.311851960718
 H   -1.462526215637    0.680058759868   -1.290851960718
 H   -0.278526215637    1.902058759868   -0.823851960718
 H   -1.547586215637    1.406307759868    0.330578039282
