9
0 1 
 C   -1.106349454930    0.869346086825    0.374155338605
 C    0.014650545070   -0.074653913175   -0.017844661395
 O   -0.187349454930   -1.281653913175   -0.129844661395
 N    1.205650545070    0.454346086825   -0.228844661395
 H    1.956650545070   -0.155653913175   -0.493844661395
 H    1.385650545070    1.427346086825    0.039155338605
 H   -0.702349454930    1.857346086825    0.559155338605
 H   -1.543349454930    0.502346086825    1.302155338605
 H   -1.876289454930    0.934286086825   -0.408774661395
