8
0 1 
 C   -0.317334336732   -0.171902801973    0.670281733765
 C    0.323665663268    0.171097198027   -0.666718266235
 H    0.205665663268    0.328097198027    1.487281733765
 H   -1.346334336732    0.174097198027    0.633281733765
 H   -0.326334336732   -1.247902801973    0.842281733765
 H   -0.181334336732   -0.403902801973   -1.442718266235
 H    1.395275663268   -0.077193801973   -0.663838266235
 H    0.177675663268    1.236397198027   -0.898718266235
