8
0 1 
 C   -0.195632841335    0.598112889785   -0.428053535373
 C    0.198367158665   -0.599887110215    0.423946464627
 H   -0.802632841335    0.284112889785   -1.278053535373
 H   -0.791632841335    1.277112889785    0.171946464627
 H    0.689367158665    1.114112889785   -0.779053535373
 H    1.015367158665   -0.312887110215    1.082946464627
 H    0.485357158665   -1.435822110215   -0.230917135373
 H   -0.628382841335   -0.905504110215    1.082033464627
