8
0 1 
 C   -0.084962501811   -0.628479387237    0.430004663229
 C    0.076037498189    0.637520612763   -0.423995336771
 H    0.352037498189   -0.453479387237    1.402004663229
 H   -1.098962501811   -0.993479387237    0.546004663229
 H    0.493037498189   -1.432479387237   -0.029995336771
 H    0.316037498189    0.310520612763   -1.437995336771
 H    0.910350498189    1.259386612763   -0.067335336771
 H   -0.866232001811    1.201878612763   -0.484235336771
