9
0 1 
 C   -0.366598930319   -1.409876017644    0.151966956689
 C    0.034401069681   -0.004876017644   -0.002033043311
 O    0.848401069681    0.594123982356    0.692966956689
 N   -0.486598930319    0.756123982356   -0.801033043311
 H   -1.374598930319   -1.559876017644   -0.237033043311
 H   -0.354598930319   -1.638876017644    1.212966956689
 H   -0.164598930319    1.710123982356   -0.805033043311
 H   -1.207598930319    0.437123982356   -1.431033043311
 H    0.353054069681   -2.038316017644   -0.393160043311
