8
0 1 
 C    0.520103655268   -0.025741025665   -0.551910387202
 C   -0.517896344732    0.020258974335    0.556089612798
 H    0.742103655268   -1.046741025665   -0.849910387202
 H    0.148103655268    0.505258974335   -1.426910387202
 H    1.439103655268    0.456258974335   -0.212910387202
 H   -1.447896344732   -0.418741025665    0.191089612798
 H   -0.706896344732    1.071258974335    0.778089612798
 H   -0.200800344732   -0.502021025665    1.470790612798
