15
0 1 
 C    1.032919257241   -2.173258844023    0.396818651737
 C   -0.071080742759    1.436741155977    0.855818651737
 C   -0.774080742759    1.654741155977   -0.308181348263
 C    0.509919257241    0.191741155977    1.069818651737
 C    0.426919257241   -0.831258844023    0.134818651737
 C   -0.909080742759    0.619741155977   -1.210181348263
 C   -0.325080742759   -0.613258844023   -0.997181348263
 H    0.022919257241    2.217741155977    1.596818651737
 H   -1.255080742759    2.604741155977   -0.493181348263
 H    1.028919257241    0.015741155977    1.995818651737
 H   -1.519080742759    0.740741155977   -2.086181348263
 H    0.285919257241   -2.912258844023    0.208818651737
 H    1.341919257241   -2.241258844023    1.440818651737
 H   -0.485080742759   -1.404258844023   -1.713181348263
 H    1.884139257241   -2.416873844023   -0.255926348263
