9
0 1 
 C    0.323928049387   -0.050329821850    0.427894512669
 C   -0.516071950613    1.261670178150    0.156894512669
 O    0.148928049387   -1.073329821850   -0.559105487331
 H    1.379928049387    0.210670178150    0.501894512669
 H    0.027928049387   -0.453329821850    1.397894512669
 H   -0.248071950613    1.648670178150   -0.823105487331
 H    0.674928049387   -1.838329821850   -0.277105487331
 H   -0.319301950613    2.013840178150    0.935054512669
 H   -1.591181950613    1.029780178150    0.175794512669
