12
0 1 
 C    0.651986442533   -1.770510579567   -1.178947904516
 C   -0.527013557467    0.645489420433    1.292052095484
 C    0.224986442533   -0.546510579567   -0.405947904516
 C    0.140986442533    0.756489420433   -0.805947904516
 N   -0.185013557467   -0.574510579567    0.914052095484
 N   -0.332013557467    1.475489420433    0.266052095484
 H   -0.895013557467    0.854489420433    2.291052095484
 H   -0.504013557467    2.472489420433    0.266052095484
 H    0.372986442533    1.224489420433   -1.753947904516
 H    1.430986442533   -2.262510579567   -0.592947904516
 H    1.081986442533   -1.422510579567   -2.117947904516
 H   -0.148783557467   -2.489710579567   -1.405917904516
