15
0 1 
 C   -2.268156075426    0.900266016080    0.096067381102
 C   -0.861156075426    0.383266016080    0.038067381102
 C   -0.282156075426    0.044266016080   -1.182932618898
 C   -0.124156075426    0.180266016080    1.196067381102
 C    0.989843924574   -0.514733983920   -1.229932618898
 C    1.145843924574   -0.374733983920    1.138067381102
 C    1.689843924574   -0.727733983920   -0.065932618898
 H   -2.488156075426    1.417266016080   -0.838932618898
 H   -2.346156075426    1.641266016080    0.892067381102
 H   -0.816156075426    0.227266016080   -2.094932618898
 H   -0.549156075426    0.438266016080    2.156067381102
 H    1.424843924574   -0.793733983920   -2.179932618898
 H    1.692843924574   -0.546733983920    2.052067381102
 H    2.653843924574   -1.199733983920   -0.109932618898
 H   -3.023786075426    0.115624016080    0.248887381102
