8
0 1 
 C    0.129314849019    0.310600177490    0.688590758961
 C   -0.135685150981   -0.312399822510   -0.683409241039
 H    0.366314849019   -0.461399822510    1.418590758962
 H    0.978314849019    0.989600177490    0.626590758961
 H   -0.746685150981    0.869600177490    1.017590758961
 H    0.710314849019   -0.927399822510   -0.935409241038
 H   -1.053114150981   -0.917345822510   -0.732029241039
 H   -0.179295150981    0.468373177490   -1.457029241038
