15
0 1 
 C   -2.251291446574   -0.627611807469   -0.711303221110
 C    1.708708553426    0.478388192531    0.537696778890
 C    1.533708553426   -0.369611807469   -0.554303221110
 C    0.599708553426    0.973388192531    1.220696778890
 C    0.247708553426   -0.730611807469   -0.955303221110
 C   -0.686291446574    0.607388192531    0.817696778890
 C   -0.868291446574   -0.249611807469   -0.267303221110
 H    2.705708553426    0.746388192531    0.857696778890
 H    2.394708553426   -0.731611807469   -1.093303221110
 H    0.736708553426    1.633388192531    2.067696778890
 H    0.118708553426   -1.385611807469   -1.806303221110
 H   -1.542291446574    0.993388192531    1.354696778890
 H   -2.966291446574   -0.406611807469    0.083696778890
 H   -2.262291446574   -1.705611807469   -0.877303221110
 H   -2.566021446574   -0.116711807469   -1.633219221110
