8
0 1 
 C    0.051740829225   -0.595104274385   -0.471810702280
 C   -0.051259170775    0.601895725615    0.470189297720
 H    0.797740829225   -0.419104274385   -1.238810702280
 H    0.342740829225   -1.479104274385    0.098189297720
 H   -0.910259170775   -0.818104274385   -0.933810702280
 H   -0.921259170775    0.449895725615    1.098189297720
 H   -0.160069170775    1.530320725615   -0.109630702280
 H    0.845370829225    0.655231725615    1.105179297720
