15
0 1 
 C   -1.705238518791    1.667342115621    0.561757065787
 C   -0.621238518791   -0.584657884379    0.894757065787
 C   -0.654238518791    0.640342115621    0.223757065787
 C    0.344761481209   -1.532657884379    0.563757065787
 C    1.298761481209   -1.255657884379   -0.422242934213
 C    0.281761481209    0.892342115621   -0.794242934213
 C    1.268761481209   -0.037657884379   -1.102242934213
 H   -1.340238518791   -0.806657884379    1.657757065787
 H    0.355761481209   -2.485657884379    1.075757065787
 H   -1.259238518791    2.661342115621    0.573757065787
 H   -2.060238518791    1.462342115621    1.571757065787
 H    2.053761481209   -1.991657884379   -0.668242934213
 H    0.260761481209    1.836342115621   -1.322242934213
 H    2.005761481209    0.179342115621   -1.864242934213
 H   -2.556418518791    1.652245115621   -0.134852934213
