14
0 1 
 C   -0.054447947783   -0.331824768039   -0.134474978112
 C    0.083552052217   -0.454824768039    1.397525021888
 C   -1.262447947783    0.521175231961   -0.516474978112
 C    1.225552052217    0.226175231961   -0.758474978112
 H   -0.203447947783   -1.327824768039   -0.546474978112
 H    0.997552052217   -1.009824768039    1.619525021888
 H   -1.114447947783    1.565175231961   -0.238474978112
 H   -1.403447947783    0.482175231961   -1.596474978112
 H   -2.166447947783    0.142175231961   -0.040474978112
 H    2.081552052217   -0.380824768039   -0.461474978112
 H    1.140552052217    0.190175231961   -1.844474978112
 H    1.385552052217    1.261175231961   -0.461474978112
 H   -0.770741947783   -0.989515768039    1.838305021888
 H    0.146101052217    0.535041231961    1.873185021888
