11
0 1 
 C    0.501175204456    0.273506510482   -0.274571942991
 C    0.488175204456   -1.017493489518    0.506428057009
 C   -0.947824795544    0.756506510482   -0.260571942991
 H    0.878175204456    0.124506510482   -1.287571942991
 H    1.128175204456    0.996506510482    0.245428057009
 H    0.103175204456   -1.827493489518   -0.115571942991
 H    1.473175204456   -1.264493489518    0.902428057009
 H   -0.984824795544    1.842506510482   -0.225571942991
 H   -0.229154795544   -0.787253489518    1.307938057009
 H   -1.359414795544    0.333656510482    0.667758057009
 H   -1.503744795544    0.432996510482   -1.152921942991
