19
0 1 
 C    2.208030757074   -1.870951968595    0.789777330591
 C   -0.868969242926   -0.015951968595   -0.412222669409
 C    0.414030757074   -0.006951968595    0.197777330591
 C    0.894030757074   -1.370951968595    0.230777330591
 C   -0.085969242926   -2.120951968595   -0.346222669409
 C   -1.614969242926    1.143048031405   -0.610222669409
 C   -1.070969242926    2.340048031405   -0.179222669409
 C    0.936030757074    1.221048031405    0.625777330591
 C    0.192030757074    2.383048031405    0.426777330591
 N   -1.139969242926   -1.319951968595   -0.729222669409
 H   -1.978969242926   -1.661951968595   -1.182222669409
 H   -2.591969242926    1.100048031405   -1.068222669409
 H   -0.037969242926   -3.195951968595   -0.481222669409
 H   -1.628969242926    3.258048031405   -0.313222669409
 H    1.901030757074    1.255048031405    1.101777330591
 H    3.020030757074   -1.387951968595    0.245777330591
 H    2.278030757074   -2.936951968595    0.600777330591
 H    0.591030757074    3.333048031405    0.754777330591
 H    2.341040757074   -1.682171968595    1.865267330591
