12
0 1 
 C    0.355749146473    0.980562114153   -0.302299072758
 C    1.811749146473    0.819562114153    0.078700927242
 C   -0.440250853527   -0.272437885847   -0.015299072758
 O    0.032749146473   -1.405437885847   -0.164299072758
 N   -1.692250853527   -0.083437885847    0.355700927242
 H   -0.064250853527    1.816562114153    0.260700927242
 H    0.274749146473    1.199562114153   -1.359299072758
 H    1.835749146473    0.503562114153    1.124700927242
 H   -2.253250853527   -0.894437885847    0.568700927242
 H   -2.060250853527    0.848562114153    0.478700927242
 H    2.372099146473    1.757002114153   -0.052525072758
 H    2.322089146473    0.043922114153   -0.511159072758
