8
0 1 
 C   -0.436794137503   -0.432873076378   -0.441061699443
 C    0.440205862497    0.431126923622    0.443938300557
 H   -0.385794137503   -1.471873076378   -0.120061699443
 H   -1.465794137503   -0.087873076378   -0.360061699443
 H   -0.118794137503   -0.370873076378   -1.481061699443
 H    0.270205862497    1.469126923622    0.163938300557
 H    1.494940862497    0.177529523622    0.261665300557
 H    0.164612862497    0.304753923622    1.501330300557
