8
0 1 
 C   -0.470956943982    0.593012655768   -0.068094967974
 C    0.469043056018   -0.596987344232    0.065905032026
 H   -1.434956943982    0.273012655768   -0.465094967974
 H   -0.620956943982    1.055012655768    0.907905032026
 H   -0.034956943982    1.333012655768   -0.742094967974
 H    1.412043056018   -0.247987344232    0.491905032026
 H    0.665873056018   -1.032117344232   -0.925013967974
 H    0.035743056018   -1.333607344232    0.758469032026
