8
0 1 
 C   -0.536643116580    0.523102195737   -0.139123372026
 C    0.537356883420   -0.523897804263    0.137876627974
 H   -0.172643116580    1.350102195737   -0.729123372026
 H   -1.387643116580    0.066102195737   -0.645123372026
 H   -0.844643116580    0.928102195737    0.819876627974
 H    0.861356883420   -0.941897804263   -0.817123372026
 H    1.396956883420   -0.049047804263    0.633467627974
 H    0.138116883420   -1.343887804263    0.752870627974
