8
0 1 
 C   -0.494367952173   -0.303838781472   -0.495287877638
 C    0.493632047827    0.307161218528    0.490712122362
 H    0.035632047827   -0.819838781472   -1.294287877638
 H   -1.118367952173   -1.034838781472    0.017712122362
 H   -1.132367952173    0.473161218528   -0.918287877638
 H    1.151632047827   -0.483838781472    0.847712122362
 H    1.096342047827    1.105312218528    0.032792122362
 H   -0.024107952173    0.720483218528    1.368842122362
