7
-1 1 
 C   -0.098258876081    0.652686929318   -1.296852136347
 C   -0.003258876081   -0.047313070682    0.065147863653
 O   -0.214258876081   -1.281313070682    0.191147863653
 O    0.307741123919    0.665686929318    1.042147863653
 H    0.906741123919    0.970686929318   -1.583852136347
 H   -0.694258876081    1.561686929318   -1.207852136347
 H   -0.487358876081    0.029976929318   -2.115902136347
