9
0 1 
 C   -1.255391632900    0.331354732479   -0.622600191496
 C    0.030608367100   -0.005645267521    0.074399808504
 O    0.131608367100    0.072354732479    1.297399808504
 N    1.035608367100   -0.374645267521   -0.700600191496
 H   -2.086391632900   -0.048645267521   -0.030600191496
 H   -1.281391632900   -0.151645267521   -1.600600191496
 H    1.920608367100   -0.589645267521   -0.266600191496
 H    0.914608367100   -0.451645267521   -1.697600191496
 H   -1.361974632900    1.420544732479   -0.733563191496
