9
0 1 
 C    0.307707243554   -0.312794652774   -0.369304991128
 C    0.770707243554    0.067205347226    1.043695008872
 O   -0.956292756446    0.249205347226   -0.667304991128
 H    1.038707243554    0.039205347226   -1.098304991128
 H    0.218707243554   -1.396794652774   -0.414304991128
 H    1.832707243554   -0.132794652774    1.142695008872
 H   -1.622292756446   -0.172794652774   -0.109304991128
 H    0.233565243554   -0.510560652774    1.810288008872
 H    0.635169243554    1.142859347226    1.229700008872
