8
1 1 
 C    0.714968278252    0.092075440034   -0.318472789209
 N   -0.633031721748   -0.077924559966    0.281527210791
 H   -1.360031721748   -0.090924559966   -0.423472789209
 H   -0.695031721748   -0.946924559966    0.798527210791
 H   -0.873031721748    0.674075440034    0.934527210791
 H    0.946968278252   -0.786924559966   -0.928472789209
 H    1.477968278252    0.158075440034    0.464527210791
 H    0.785718278252    0.979007440034   -0.965272789209
