8
1 1 
 C   -0.764995867754   -0.154544675362    0.133151861240
 N    0.681004132246    0.133455324638   -0.116848138760
 H    0.729004132246    0.804455324638   -0.887848138760
 H    1.127004132246    0.551455324638    0.690151861240
 H    1.196004132246   -0.699544675362   -0.375848138760
 H   -1.302995867754    0.785455324638    0.296151861240
 H   -0.877995867754   -0.770544675362    1.029151861240
 H   -1.224455867754   -0.685414675362   -0.713646738760
