11
0 1 
 C   -0.366486251125   -0.083576489438    0.469545823789
 C    1.164513748875   -0.128576489438    0.525545823789
 C   -0.826486251125    0.196423510562   -0.954454176211
 H   -0.774486251125   -1.035576489438    0.806545823789
 H   -0.742486251125    0.707423510562    1.118545823789
 H    1.531513748875    0.757423510562    0.017545823789
 H   -0.443486251125    1.171423510562   -1.250454176211
 H   -0.393486251125   -0.549576489438   -1.622454176211
 H    1.550536748875   -1.014156489438   -0.000505176211
 H    1.525511748875   -0.048276489438    1.561514823789
 H   -1.914763741125    0.198603510562   -1.114602176211
