11
0 1 
 C   -0.309947730887    0.511314706884   -0.004614728178
 C   -0.626947730887   -0.689685293116    0.887385271822
 C    0.915052269113    0.223314706884   -0.880614728178
 H   -1.172947730887    0.709314706884   -0.641614728178
 H   -0.112947730887    1.391314706884    0.610385271822
 H    0.251052269113   -0.954685293116    1.475385271822
 H   -0.849947730887   -1.539685293116    0.240385271822
 H    1.802052269113    0.176314706884   -0.239614728178
 H    0.786052269113   -0.763685293116   -1.338614728178
 H   -1.498112730887   -0.528998893116    1.539498171822
 H    1.054882269113    0.974968706884   -1.671478728178
