16
0 1 
 C   -2.158163073248    0.612781678332   -1.922888949131
 C   -0.318163073248   -0.461218321668    1.269111050869
 C   -1.334163073248   -0.156218321668    0.365111050869
 C    1.010836926752   -0.289218321668    0.891111050869
 C   -1.045163073248    0.291781678332   -0.934888949131
 C    1.312836926752    0.164781678332   -0.390888949131
 C    0.302836926752    0.455781678332   -1.285888949131
 O    2.023836926752   -0.559218321668    1.750111050869
 H   -0.555163073248   -0.803218321668    2.266111050869
 H   -2.363163073248   -0.254218321668    0.681111050869
 H    1.716836926752   -0.691218321668    2.666111050869
 H    2.346836926752    0.286781678332   -0.680888949131
 H   -1.718163073248    0.879781678332   -2.884888949131
 H   -2.682163073248    1.493781678332   -1.546888949131
 H    0.561836926752    0.798781678332   -2.278888949131
 H   -2.884613073248   -0.199308321668   -2.073839949131
