15
0 1 
 C   -1.640596744945   -1.232848340594   -1.379339799140
 C   -0.071596744945    0.682151659406    1.471660200860
 C    1.200403255055    0.938151659406    1.057660200860
 C   -0.960596744945   -0.047848340594    0.711660200860
 C   -0.622596744945   -0.456848340594   -0.548339799140
 C    1.609403255055    0.476151659406   -0.175339799140
 C    0.695403255055   -0.195848340594   -0.976339799140
 H   -0.396596744945    1.034151659406    2.429660200860
 H    1.880403255055    1.492151659406    1.691660200860
 H   -1.918596744945   -0.309848340594    1.123660200860
 H    2.616403255055    0.661151659406   -0.524339799140
 H   -2.632596744945   -0.809848340594   -1.216339799140
 H   -1.653596744945   -2.258848340594   -1.021339799140
 H    1.031403255055   -0.511848340594   -1.949339799140
 H   -1.425146744945   -1.238608340594   -2.458019799140
