12
0 1 
 C    0.793047862014    0.107594137919   -0.730774977210
 C    1.970047862014   -0.308405862081    0.163225022790
 C   -0.519952137986    0.100594137919    0.018225022790
 O   -0.570952137986    0.408594137919    1.211225022790
 N   -1.594952137986   -0.273405862081   -0.664774977210
 H    0.942047862014    1.100594137919   -1.152774977210
 H    0.716047862014   -0.601405862081   -1.555774977210
 H    2.844047862014   -0.433405862081   -0.475774977210
 H   -2.484952137986   -0.277405862081   -0.187774977210
 H   -1.531952137986   -0.513405862081   -1.642774977210
 H    1.761656862014   -1.246920862081    0.697793022790
 H    2.266625862014    0.479335137919    0.871396022790
