9
0 1 
 C   -0.383278124510   -0.425107737524    0.150497968151
 C   -0.765278124510    1.053892262476   -0.009502031849
 O    1.026721875490   -0.542107737524   -0.158502031849
 H   -0.560278124510   -0.733107737524    1.181497968151
 H   -0.979278124510   -1.038107737524   -0.521502031849
 H   -0.145278124510    1.602892262476    0.696497968151
 H    1.368721875490   -1.344107737524    0.267497968151
 H   -1.818778124510    1.253672262476    0.235917968151
 H   -0.484268124510    1.375572262476   -1.023182031849
