8
0 1 
 C    0.228859918474    0.569090104431   -0.453659216584
 C   -0.231140081526   -0.566909895569    0.454340783416
 H   -0.504140081526    1.376090104431   -0.439659216584
 H    1.184859918474    0.907090104431   -0.115659216584
 H    0.349859918474    0.207090104431   -1.470659216584
 H    0.515859918474   -1.361909895569    0.434340783416
 H   -1.194240081526   -0.962309895569    0.099290783416
 H   -0.325050081526   -0.192009895569    1.484230783416
