6
0 1 
 C   -0.600382783782   -0.335635636182   -0.253957704805
 O    0.538617216218    0.325364363818    0.290042295195
 H    1.249617216218    0.347364363818   -0.387957704805
 H   -0.287382783782   -1.303635636182   -0.645957704805
 H   -1.352892783782   -0.473555636182    0.536422295195
 H   -1.008932783782    0.262414363818   -1.081857704805
