13
1 1 
 C   -0.592064944908    1.889234293548    0.231299824729
 C    0.142935055092   -0.458765706452   -0.067700175271
 N    0.092935055092   -1.578765706452   -0.757700175271
 N   -0.572064944908    0.590234293548   -0.452700175271
 N    0.910935055092   -0.397765706452    1.002299824729
 H   -0.553064944908   -1.687765706452   -1.525700175271
 H    0.687935055092   -2.356765706452   -0.471700175271
 H   -1.172064944908    0.477234293548   -1.258700175271
 H    0.756935055092    0.331234293548    1.687299824729
 H    1.461935055092   -1.213765706452    1.283299824729
 H   -0.591064944908    1.753234293548    1.314299824729
 H   -1.512064944908    2.419234293548   -0.022700175271
 H    0.269515055092    2.506713293548   -0.062630175271
