9
0 1 
 C   -0.195717645798    0.421436357141    1.362003884448
 C    0.044282354202    0.038436357141   -0.068996115552
 O    0.272282354202    0.873436357141   -0.941996115552
 N   -0.100717645798   -1.247563642859   -0.340996115552
 H    0.511282354202   -0.105563642859    2.002003884448
 H   -1.190717645798    0.063436357141    1.634003884448
 H    0.042282354202   -1.553563642859   -1.291996115552
 H   -0.310717645798   -1.911563642859    0.391003884448
 H   -0.170927645798    1.503646357141    1.557443884448
