8
0 1 
 C    0.670522808339    0.374576523927    0.045918090294
 C   -0.670477191661   -0.383423476073   -0.052081909706
 H    1.451522808339   -0.154423476073   -0.504081909706
 H    0.562522808339    1.371576523927   -0.376081909706
 H    0.978522808339    0.489576523927    1.085918090294
 H   -1.361477191661    0.077576523927    0.655918090294
 H   -0.500017191661   -1.426173476073    0.253895090294
 H   -1.131617191661   -0.252793476073   -1.042175909706
