8
0 1 
 C   -0.323486812376    0.401140613383    0.558914808957
 C    0.324513187624   -0.393859386617   -0.564085191043
 H   -1.240486812376    0.879140613383    0.215914808957
 H   -0.576486812376   -0.273859386617    1.376914808957
 H    0.372513187624    1.152140613383    0.927914808957
 H   -0.410486812376   -1.095859386617   -0.952085191043
 H    1.135513187624   -0.963859386617   -0.111085191043
 H    0.707213187624    0.215600613383   -1.396011191043
