18
0 1 
 C    0.124619993343    1.500730144404   -0.203901582049
 C    1.174619993343    1.832730144404   -1.243901582049
 C    0.849619993343   -0.529269855596   -1.329901582049
 C   -1.258380006657   -0.089269855596    1.832098417951
 C   -0.523380006657   -0.755269855596    0.672098417951
 O   -0.547380006657   -1.982269855596    0.536098417951
 N    0.129619993343    0.032730144404   -0.185901582049
 H    0.379619993343    1.899730144404    0.773098417951
 H   -0.859380006657    1.869730144404   -0.500901582049
 H    2.172619993343    1.823730144404   -0.792901582049
 H    0.991619993343    2.804730144404   -1.696901582049
 H    0.254619993343   -1.340269855596   -1.746901582049
 H   -0.799380006657    0.882730144404    2.012098417951
 H    1.050279993343    1.011240144404   -1.964801582049
 H    0.955709993343    0.326670144404   -2.012631582049
 H    1.842159993343   -0.921809855596   -1.063871582049
 H   -2.324487006657    0.006280144404    1.578548417951
 H   -1.148047006657   -0.690689855596    2.746488417951
