8
0 1 
 C    0.504944337123   -0.061109255792    0.565238710353
 C   -0.508055662877    0.064890744208   -0.565761289647
 H    0.190944337123    0.533890744208    1.419238710353
 H    0.602944337123   -1.097109255792    0.881238710353
 H    1.487944337123    0.269890744208    0.243238710353
 H   -0.150055662877   -0.519109255792   -1.415761289647
 H   -0.620545662877    1.110740744208   -0.887561289647
 H   -1.474185662877   -0.343329255792   -0.234171289647
