19
0 1 
 C    1.061151084175   -2.189412083103   -0.621145133320
 C    1.228151084175   -2.301412083103   -2.150145133320
 C    0.419151084175   -0.927412083103   -0.136145133320
 C    1.185151084175    0.222587916897    0.035854866680
 C   -0.942848915825   -0.871412083103    0.124854866680
 C    0.602151084175    1.408587916897    0.470854866680
 C   -1.529848915825    0.318587916897    0.559854866680
 C   -0.746848915825    1.465587916897    0.701854866680
 O   -1.276848915825    2.657587916897    1.108854866680
 H    0.476151084175   -3.038412083103   -0.267145133320
 H    2.047151084175   -2.267412083103   -0.158145133320
 H    1.862151084175   -1.492412083103   -2.512145133320
 H    2.246151084175    0.167587916897   -0.143145133320
 H   -1.553848915825   -1.754412083103   -0.002145133320
 H    1.214151084175    2.288587916897    0.605854866680
 H   -2.585848915825    0.365587916897    0.778854866680
 H   -0.606848915825    3.345587916897    1.174854866680
 H    0.252711084175   -2.300662083103   -2.658581133320
 H    1.717001084175   -3.268132083103   -2.341147133320
