7
-1 1 
 C   -0.811251364248    0.815491594793   -0.843595683136
 C    0.046748635752   -0.050508405207    0.047404316864
 O    0.702748635752   -0.980508405207   -0.467595683136
 O    0.066748635752    0.210491594793    1.264404316864
 H   -1.281251364248    1.610491594793   -0.259595683136
 H   -1.617251364248    0.219491594793   -1.267595683136
 H   -0.211174364248    1.282218594793   -1.638625683136
