8
0 1 
 C    0.458931077605   -0.252242232229    0.556472115376
 C   -0.458068922395    0.252757767771   -0.558527884624
 H    0.103931077605    0.086757767771    1.528472115376
 H    0.478931077605   -1.340242232229    0.591472115376
 H    1.473931077605    0.118757767771    0.403472115376
 H   -1.469068922395   -0.123242232229   -0.404527884624
 H   -0.091111922395   -0.099837232229   -1.533729884624
 H   -0.506877922395    1.351667767771   -0.560680884624
