15
0 1 
 C   -1.950634691328    1.086193070412    1.021943239396
 C    1.613365308672   -0.170806929588    0.430943239396
 C    1.479365308672   -0.827806929588   -0.777056760604
 C    0.496365308672    0.460193070412    1.014943239396
 C   -0.747634691328    0.430193070412    0.386943239396
 C    0.235365308672   -0.872806929588   -1.401056760604
 C   -0.877634691328   -0.234806929588   -0.811056760604
 H    2.559365308672   -0.190806929588    0.940943239396
 H    2.329365308672   -1.329806929588   -1.221056760604
 H    0.609365308672    0.965193070412    1.962943239396
 H    0.120365308672   -1.432806929588   -2.311056760604
 H   -2.475634691328    1.664193070412    0.260943239396
 H   -1.607634691328    1.787193070412    1.782943239396
 H   -1.844634691328   -0.286806929588   -1.289056760604
 H   -2.650084691328    0.367351070412    1.473643239396
