15
0 1 
 C    0.385176259833   -1.751320029246   -1.685116399652
 C   -0.319823740167    1.314679970754    1.282883600348
 C   -1.063823740167    1.280679970754    0.121883600348
 C    0.670176259833    0.355679970754    1.479883600348
 C   -0.812823740167    0.309679970754   -0.856116399652
 C    0.916176259833   -0.630320029246    0.526883600348
 C    0.179176259833   -0.659320029246   -0.660116399652
 H   -0.505823740167    2.069679970754    2.031883600348
 H   -1.838823740167    2.018679970754   -0.035116399652
 H    1.250176259833    0.372679970754    2.391883600348
 H   -1.405823740167    0.300679970754   -1.760116399652
 H    1.687176259833   -1.351320029246    0.709883600348
 H    1.419176259833   -2.098320029246   -1.652116399652
 H    0.235176259833   -1.329320029246   -2.666116399652
 H   -0.296303740167   -2.599402029246   -1.522824399652
