11
0 1 
 C   -0.038607255691   -0.349944280409   -0.465862558620
 C    0.908392744309    0.852055719591   -0.418862558620
 C   -0.874607255691   -0.518944280409    0.850137441380
 H   -0.721607255691   -0.233944280409   -1.308862558620
 H    0.510392744309   -1.279944280409   -0.603862558620
 H    1.422392744309    0.827055719591    0.544137441380
 H   -1.489607255691    0.361055719591    1.021137441380
 H   -1.524607255691   -1.388944280409    0.760137441380
 H   -0.204607255691   -0.665944280409    1.697137441380
 H    1.671682744309    0.759835719591   -1.205558558620
 H    0.393372744309    1.821255719591   -0.492436558620
