15
0 1 
 C    1.264420119450    1.655442210927    1.278264551426
 C    0.278420119450    0.800442210927   -0.887735448574
 C    0.525420119450    0.623442210927    0.461264551426
 C   -0.509579880550   -0.130557789073   -1.579735448574
 C    0.019420119450   -0.491557789073    1.085264551426
 C   -1.001579880550   -1.233557789073   -0.929735448574
 C   -0.719579880550   -1.436557789073    0.400264551426
 H    0.663420119450    1.666442210927   -1.397735448574
 H   -0.751579880550   -0.001557789073   -2.619735448574
 H    0.887420119450    1.622442210927    2.302264551426
 H    1.043420119450    2.650442210927    0.887264551426
 H    0.207420119450   -0.643557789073    2.139264551426
 H   -1.608579880550   -1.947557789073   -1.467735448574
 H   -1.091579880550   -2.313557789073    0.906264551426
 H    2.353440119450    1.501922210927    1.299886551426
