12
0 1 
 C    0.693906472928    0.337183613350    0.782417531922
 C    1.966906472928    0.188183613350   -0.056582468078
 C   -0.562093527072   -0.062816386650    0.040417531922
 O   -1.591093527072   -0.367816386650    0.645417531922
 N   -0.501093527072   -0.065816386650   -1.281582468078
 H    0.784906472928   -0.323816386650    1.637417531922
 H    0.580906472928    1.350183613350    1.152417531922
 H    1.983906472928    0.927183613350   -0.860582468078
 H    1.984906472928   -0.813816386650   -0.490582468078
 H   -1.322093527072   -0.360816386650   -1.793582468078
 H    0.347906472928    0.161183613350   -1.773582468078
 H    2.864646472928    0.304373613350    0.568367531922
