9
0 1 
 C   -0.146603463758    0.548520787314    0.031294477942
 C   -0.343603463758   -0.312479212686   -1.217705522058
 O    0.396396536242   -0.201479212686    1.106294477942
 H    0.512396536242    1.388520787314   -0.194705522058
 H   -1.111603463758    0.941520787314    0.347294477942
 H   -1.008603463758   -1.134479212686   -0.948705522058
 H    1.347396536242   -0.336479212686    0.952294477942
 H    0.620686536242   -0.723490212686   -1.551185522058
 H   -0.814563463758    0.251521787314   -2.036295522058
