8
0 1 
 C   -0.651069750381   -0.154857709534   -0.362271491126
 C    0.647930249619    0.162142290466    0.366728508874
 H   -1.454069750381    0.509142290466   -0.039271491126
 H   -0.473069750381   -0.044857709534   -1.427271491126
 H   -0.926069750381   -1.190857709534   -0.166271491126
 H    1.446930249619   -0.368857709534   -0.145271491126
 H    0.574920249619   -0.230537709534    1.391658508874
 H    0.868740249619    1.239232290466    0.333358508874
