8
0 1 
 C    0.630719177606   -0.213832307929   -0.385271932914
 C   -0.633280822394    0.217167692071    0.388728067086
 H    1.492719177606   -0.172832307929    0.276728067086
 H    0.515719177606   -1.244832307929   -0.714271932914
 H    0.796719177606    0.428167692071   -1.251271932914
 H   -0.792280822394   -0.429832307929    1.249728067086
 H   -0.509956822394    1.260837692071    0.713598067086
 H   -1.472418822394    0.118777692071   -0.315661932914
