8
0 1 
 C   -0.228786355834   -0.428087862885   -0.582044045965
 C    0.232213644166    0.424912137115    0.580955954035
 H   -0.610786355834   -1.376087862885   -0.208044045965
 H   -1.022786355834    0.090912137115   -1.118044045965
 H    0.606213644166   -0.612087862885   -1.255044045965
 H   -0.651786355834    0.580912137115    1.195955954035
 H    1.032753644166   -0.042247862885    1.173315954035
 H    0.605583644166    1.396412137115    0.224815954035
