8
0 1 
 C   -0.112825812337    0.674025066188   -0.363492906404
 C    0.114174187663   -0.677974933812    0.360507093596
 H   -0.139825812337    0.531025066188   -1.444492906404
 H   -1.070825812337    1.082025066188   -0.042492906404
 H    0.667174187663    1.393025066188   -0.111492906404
 H    0.275174187663   -0.485974933812    1.420507093596
 H    1.016884187663   -1.138294933812   -0.067543906404
 H   -0.764635812337   -1.334774933812    0.281067093596
