6
0 1 
 C    0.054046110240   -0.281042195255    0.673051787187
 O   -0.101953889760    0.288957804745   -0.621948212813
 H    0.669046110240    0.039957804745   -1.145948212813
 H    0.889046110240    0.211957804745    1.173051787187
 H   -0.865513889760   -0.139352195255    1.259851787187
 H    0.281986110240   -1.352212195255    0.569901787187
