8
0 1 
 C   -0.152666260336    0.529936382935   -0.557730234866
 C    0.153333739664   -0.528063617065    0.562269765134
 H    0.323333739664    1.474936382935   -0.305730234866
 H    0.220333739664    0.174936382935   -1.519730234866
 H   -1.228666260336    0.686936382935   -0.621730234866
 H   -0.329666260336   -1.460063617065    0.270269765134
 H   -0.234186260336   -0.207306617065    1.540499765134
 H    1.240903739664   -0.691737617065    0.582369765134
