8
0 1 
 C    0.525915458677   -0.297026956014   -0.465887422647
 C   -0.523084541323    0.298973043986    0.468112577353
 H    1.525915458677   -0.188026956014   -0.043887422647
 H    0.309915458677   -1.354026956014   -0.614887422647
 H    0.478915458677    0.209973043986   -1.428887422647
 H   -1.509084541323    0.164973043986    0.018112577353
 H   -0.331404541323    1.372813043986    0.609982577353
 H   -0.507964541323   -0.228876956014    1.433072577353
