7
-1 1 
 C   -0.465461563465   -1.315942118949   -0.354138250683
 C    0.044538436535    0.072057881051    0.023861749317
 O   -0.839461563465    0.926057881051    0.299861749317
 O    1.272538436535    0.322057881051    0.028861749317
 H   -1.248461563465   -1.231942118949   -1.111138250683
 H   -0.924461563465   -1.755942118949    0.533861749317
 H    0.311538436535   -2.009902118949   -0.707258250683
