11
0 1 
 C    0.499228911243   -0.145501779110   -0.204908856042
 C   -0.764771088757   -1.009501779110   -0.400908856042
 C    0.297228911243    1.148498220890    0.597091143958
 H    1.265228911243   -0.748501779110    0.286091143958
 H    0.878228911243    0.130498220890   -1.189908856042
 H   -1.598771088757   -0.402501779110   -0.735908856042
 H   -0.109771088757    0.924498220890    1.574091143958
 H   -1.043028088757   -1.544087179110    0.519304143958
 H   -0.586295088757   -1.762425209110   -1.182735256042
 H    1.253644111243    1.675954220890    0.727706143958
 H   -0.436525088757    1.804023220890    0.105266143958
