7
-1 1 
 C   -1.074520207415   -0.463633045958   -0.855907899663
 C    0.057479792585    0.034366954042    0.049092100337
 O    0.449479792585   -0.710633045958    0.968092100337
 O    0.567479792585    1.151366954042   -0.157907899663
 H   -1.846520207415   -0.942633045958   -0.257907899663
 H   -0.649520207415   -1.241633045958   -1.493907899663
 H   -1.534120207415    0.300696954042   -1.499777899663
