8
0 1 
 C    0.653988419490    0.388595061917    0.026394818118
 C   -0.652011580510   -0.393404938083   -0.031605181882
 H    0.703988419490    1.120595061917   -0.778605181882
 H    0.706988419490    0.920595061917    0.975394818118
 H    1.499988419490   -0.291404938083   -0.039605181882
 H   -1.444011580510    0.346595061917    0.003394818118
 H   -0.735087280510   -0.995704938083   -0.948303181882
 H   -0.755404280510   -1.043404938083    0.849762818118
