8
0 1 
 C    0.411344455761   -0.341988612134    0.552447826393
 C   -0.413655544239    0.345011387866   -0.549552173607
 H    0.105344455761    0.022011387866    1.534447826393
 H    0.246344455761   -1.417988612134    0.514447826393
 H    1.477344455761   -0.160988612134    0.408447826393
 H   -0.023655544239    0.030011387866   -1.515552173607
 H   -0.303886544239    1.436241387866   -0.464894173607
 H   -1.473973544239    0.054721387866   -0.511375173607
