11
1 1 
 C   -0.471835715480   -0.320847246289   -0.094397118996
 C    0.846164284520   -1.009847246289    0.041602881004
 N   -0.356835715480    1.156152753711    0.035602881004
 H   -0.921835715480   -0.592847246289   -1.050397118996
 H   -1.135835715480   -0.661847246289    0.708602881004
 H    1.248164284520   -0.815847246289    1.038602881004
 H    1.556164284520   -0.632847246289   -0.699397118996
 H    0.252164284520    1.551152753711   -0.673397118996
 H   -1.258835715480    1.612152753711   -0.043397118996
 H    0.027164284520    1.417152753711    0.938602881004
 H    0.733784284520   -2.096709246289   -0.085287118996
