8
0 1 
 C   -0.344338860984   -0.613207393922   -0.301931836635
 C    0.339661139016    0.611792606078    0.309068163365
 H   -0.888338860984   -1.158207393922    0.469068163365
 H   -1.041338860984   -0.293207393922   -1.076931836635
 H    0.402661139016   -1.268207393922   -0.750931836635
 H    0.859661139016    1.111792606078   -0.501931836635
 H    1.074611139016    0.265212606078    1.050508163365
 H   -0.351558860984    1.359462606078    0.725248163365
