15
0 1 
 C    1.362007002348   -2.007613196710   -0.386012904271
 C   -0.799992997652    1.071386803290   -1.009012904271
 C   -0.040992997652   -0.084613196710   -1.224012904271
 C   -1.016992997652    1.536386803290    0.287987095729
 C    0.507007002348   -0.786613196710   -0.147012904271
 C   -0.476992997652    0.838386803290    1.373987095729
 C    0.283007002348   -0.321613196710    1.151987095729
 H   -1.238992997652    1.594386803290   -1.836012904271
 H    0.126007002348   -0.420613196710   -2.238012904271
 H   -1.594992997652    2.435386803290    0.452987095729
 H   -0.626992997652    1.223386803290    2.368987095729
 H    1.654007002348   -2.435613196710    0.571987095729
 H    2.272007002348   -1.686613196710   -0.895012904271
 H    0.710007002348   -0.846613196710    1.993987095729
 H    0.877317002348   -2.789306196710   -0.989361904271
