8
0 1 
 C    0.655409560152   -0.385097576174    0.077857537950
 C   -0.657590439848    0.382902423826   -0.074142462050
 H    0.550409560152   -1.191097576174    0.803857537950
 H    0.945409560152   -0.813097576174   -0.883142462050
 H    1.443409560152    0.293902423826    0.409857537950
 H   -0.516590439848    1.155902423826   -0.833142462050
 H   -0.933620439848    0.863315423826    0.876127537950
 H   -1.463050439848   -0.282787816174   -0.417792462050
