8
0 1 
 C    0.562097728948   -0.006801081565    0.511199466594
 C   -0.563902271052    0.004198918435   -0.511800533406
 H    0.155097728948    0.090198918435    1.508199466594
 H    1.150097728948   -0.915801081565    0.408199466594
 H    1.213097728948    0.854198918435    0.355199466594
 H   -1.035902271052   -0.977801081565   -0.523800533406
 H   -0.143631271052    0.223344918435   -1.504450533406
 H   -1.317273271052    0.756842918435   -0.236190533406
