8
0 1 
 C   -0.342075943162    0.311034408948   -0.610139762413
 C    0.346924056838   -0.305965591052    0.610860237587
 H    0.155924056838    1.237034408948   -0.901139762413
 H   -0.323075943162   -0.391965591052   -1.444139762413
 H   -1.383075943162    0.532034408948   -0.369139762413
 H   -0.184075943162   -1.227965591052    0.859860237587
 H    0.292204056838    0.372364408948    1.475080237587
 H    1.384374056838   -0.581855591052    0.370900237587
