11
0 1 
 C   -0.229195722520   -0.436359216946   -0.296488731295
 C   -0.511195722520   -0.077359216946    1.141511268705
 C    0.721804277480    0.482640783054   -0.861488731295
 H   -1.154195722520   -0.431359216946   -0.875488731295
 H    0.191804277480   -1.435359216946   -0.333488731295
 H   -1.555195722520    0.214640783054    1.258511268705
 H   -0.261195722520   -0.915359216946    1.795511268705
 H    0.188804277480    1.174640783054   -1.517488731295
 H    1.483804277480   -0.038359216946   -1.437488731295
 H    0.158594277480    0.776530783054    1.321121268705
 H    1.168894277480    1.024660783054   -0.015128731295
