19
0 1 
 C   -0.433139703296   -0.545070780259   -2.873623011675
 C   -1.908139703296    0.349929219741   -0.950623011675
 C   -0.724139703296   -0.107070780259   -1.468623011675
 C   -0.476139703296    0.330929219741    0.772376988325
 C    0.203860296704   -0.144070780259   -0.381623011675
 C    0.140860296704    0.414929219741    2.011376988325
 C    1.552860296704   -0.514070780259   -0.268623011675
 C    1.474860296704    0.042929219741    2.097376988325
 C    2.175860296704   -0.428070780259    0.970376988325
 N   -1.758139703296    0.615929219741    0.386376988325
 H   -2.839139703296    0.441929219741   -1.497623011675
 H   -2.516139703296    0.865929219741    1.011376988325
 H   -0.657139703296   -1.608070780259   -2.968623011675
 H    0.635860296704   -0.416070780259   -3.046623011675
 H   -0.400139703296    0.765929219741    2.879376988325
 H    2.095860296704   -0.861070780259   -1.134623011675
 H    1.982860296704    0.099929219741    3.053376988325
 H    3.212860296704   -0.722070780259    1.071376988325
 H   -0.980614703296    0.015405219741   -3.645723011675
