7
-1 1 
 C    0.431188740186    1.344887528580   -0.218910710524
 C   -0.030811259814   -0.086112471420    0.017089289476
 O   -0.920811259814   -0.535112471420   -0.746910710524
 O    0.517188740186   -0.728112471420    0.951089289476
 H    0.337188740186    1.573887528580   -1.281910710524
 H    1.482188740186    1.454887528580    0.060089289476
 H   -0.180821259814    2.031502528580    0.384412289476
