18
0 1 
 C   -0.829665310795    1.232418744654    0.377288855357
 C   -0.034665310795    2.210418744654    1.248288855357
 C    1.379334689205    0.298418744654    0.847288855357
 C   -1.384665310795   -1.080581255346   -1.384711144643
 C   -0.084665310795   -0.969581255346   -0.599711144643
 O    0.778334689205   -1.850581255346   -0.711711144643
 N    0.093334689205    0.108418744654    0.186288855357
 H   -1.721665310795    0.896418744654    0.907288855357
 H   -1.087665310795    1.702418744654   -0.571711144643
 H   -0.624665310795    2.527418744654    2.107288855357
 H    0.218334689205    3.082418744654    0.649288855357
 H    2.142334689205    0.470418744654    0.086288855357
 H   -1.990665310795   -0.179581255346   -1.293711144643
 H    0.896584689205    1.719008744654    1.566558855357
 H    1.269734689205    1.208108744654    1.455938855357
 H    1.650104689205   -0.570521255346    1.465048855357
 H   -1.046275310795   -1.191871255346   -2.425441144643
 H   -1.992715310795   -1.936141255346   -1.055651144643
