8
0 1 
 C    0.182975285532   -0.663027749522    0.322079158353
 C   -0.182024714468    0.666972250478   -0.321920841647
 H    0.932975285532   -0.498027749522    1.097079158353
 H   -0.689024714468   -1.123027749522    0.780079158353
 H    0.596975285532   -1.338027749522   -0.428920841647
 H   -0.820024714468    0.444972250478   -1.178920841647
 H    0.733275285532    1.182632250478   -0.648000841647
 H   -0.765494714468    1.284512250478    0.376799158353
