16
0 1 
 C   -1.129114081676    0.175207650619    2.707164740970
 C    0.852885918324   -1.050792349381   -0.292835259030
 C    0.533885918324   -0.097792349381   -1.262835259030
 C    0.321885918324   -0.931792349381    0.986164740970
 C   -0.531114081676    0.109207650619    1.319164740970
 C   -0.318114081676    0.951207650619   -0.940835259030
 C   -0.850114081676    1.049207650619    0.339164740970
 O    1.049885918324   -0.206792349381   -2.524835259030
 H    1.497885918324   -1.878792349381   -0.543835259030
 H    0.559885918324   -1.687792349381    1.722164740970
 H   -0.574114081676    1.685207650619   -1.688835259030
 H    0.604885918324    0.401207650619   -3.137835259030
 H   -0.594114081676   -0.511792349381    3.366164740970
 H   -2.147114081676   -0.188792349381    2.625164740970
 H   -1.535114081676    1.856207650619    0.560164740970
 H   -1.141403081676    1.172097650619    3.171994740970
