6
0 1 
 C   -0.193863265008   -0.457634657588    0.530788779916
 O    0.236136734992    0.438365342412   -0.474211220084
 H   -0.448863265008    0.474365342412   -1.151211220084
 H   -0.412863265008   -1.435634657588    0.100788779916
 H    0.536747534992   -0.557524657588    1.347018779916
 H   -1.114385665008    0.010595342412    0.909468779916
