8
0 1 
 C   -0.329008188979    0.691669223028   -0.031187694402
 C    0.333991811021   -0.693330776972    0.025812305598
 H   -1.057008188979    0.749669223028   -0.838187694402
 H   -0.851008188979    0.870669223028    0.909812305598
 H    0.407991811021    1.480669223028   -0.156187694402
 H    0.874991811021   -0.794330776972    0.966812305598
 H    1.029831811021   -0.837199276972   -0.813895694402
 H   -0.464138188979   -1.449693776972   -0.004349694402
