11
0 1 
 C    0.209877252653   -0.494987331147    0.158183467431
 C   -0.530122747347    0.451012668853    1.106183467431
 C    0.339877252653    0.020012668853   -1.259816532569
 H    1.213877252653   -0.663987331147    0.548183467431
 H   -0.306122747347   -1.456987331147    0.146183467431
 H   -0.083122747347    1.445012668853    1.035183467431
 H   -0.689122747347    0.098012668853   -1.586816532569
 H    0.829877252653    0.995012668853   -1.276816532569
 H   -0.448372747347    0.068002668853    2.134103867431
 H   -1.600442747347    0.504382668853    0.858075467431
 H    0.849677252653   -0.704137331147   -1.912277532569
