8
0 1 
 C   -0.728695793313   -0.164458040301   -0.118874626966
 C    0.732304206687    0.158541959699    0.118125373034
 H   -0.930695793313   -1.214458040301    0.098125373034
 H   -1.336695793313    0.477541959699    0.508125373034
 H   -1.038695793313    0.068541959699   -1.132874626966
 H    0.866304206687    1.239541959699    0.077125373034
 H    1.353824206687   -0.313898040301   -0.656797626966
 H    1.042994206687   -0.186828040301    1.115217373034
