14
0 1 
 C    0.081315423823    0.261417825116    0.296647893569
 C   -1.428684576177    0.001417825116    0.210647893569
 C    0.819315423823   -1.007582174884    0.661647893569
 C    0.535315423823    0.776417825116   -1.123352106431
 H    0.292315423823    1.035417825116    1.028647893569
 H   -1.622684576177   -0.717582174884   -0.586352106431
 H   -1.926684576177    0.934417825116   -0.043352106431
 H    0.534315423823   -1.824582174884   -0.001352106431
 H    1.886315423823   -0.820582174884    0.553647893569
 H    0.640315423823   -1.284582174884    1.699647893569
 H   -0.023684576177    1.674417825116   -1.394352106431
 H    1.594315423823    1.025417825116   -1.068352106431
 H    0.381315423823    0.003417825116   -1.877352106431
 H   -1.842302576177   -0.402865174884    1.146317893569
