16
0 1 
 C    0.287074444876    2.811674850075    0.723400429966
 C    0.945074444876   -0.908325149925    0.415400429966
 C   -0.146925555124   -1.313325149925   -0.343599570034
 C    1.081074444876    0.423674850075    0.767400429966
 C    0.135074444876    1.365674850075    0.360400429966
 C   -1.093925555124   -0.380325149925   -0.762599570034
 C   -0.942925555124    0.952674850075   -0.412599570034
 O   -0.281925555124   -2.618325149925   -0.703599570034
 H    1.657074444876   -1.632325149925    0.781400429966
 H    1.929074444876    0.735674850075    1.363400429966
 H   -1.933925555124   -0.700325149925   -1.361599570034
 H    0.394074444876   -3.182325149925   -0.294599570034
 H    1.140074444876    2.926674850075    1.393400429966
 H   -0.604925555124    3.119674850075    1.270400429966
 H   -1.680925555124    1.674674850075   -0.740599570034
 H    0.424234444876    3.467324850075   -0.149129570034
