16
1 1 
 C   -0.857470064481    0.355216013463    1.237284938463
 C   -2.277470064481    0.719216013463    0.857284938463
 C    0.772529935519   -0.255783986537   -0.504715061537
 N    0.088529935519    0.659216013463    0.163284938463
 N    0.600529935519   -1.538783986537   -0.243715061537
 N    1.621529935519    0.120216013463   -1.438715061537
 H   -0.577470064481    0.924216013463    2.126284938463
 H   -0.869470064481   -0.686783986537    1.499284938463
 H   -2.309470064481    1.766216013463    0.573284938463
 H   -2.897470064481    0.572216013463    1.741284938463
 H    0.261529935519    1.630216013463   -0.046715061537
 H    0.093529935519   -1.803783986537    0.593284938463
 H    1.012529935519   -2.265783986537   -0.811715061537
 H    1.800529935519    1.097216013463   -1.605715061537
 H    2.184529935519   -0.575783986537   -1.898715061537
 H   -2.674100064481    0.145256013463    0.006841938463
