18
0 1 
 C    1.055044926900   -1.578292454216   -0.734178031628
 C    2.471044926900   -1.122292454216   -1.166178031628
 C    0.191044926900   -0.485292454216   -0.214178031628
 C   -0.923955073100   -0.024292454216   -0.932178031628
 C    0.407044926900   -0.001292454216    1.087821968372
 C   -1.764955073100    0.992707545784   -0.370178031628
 C   -0.387955073100    0.997707545784    1.622821968372
 C   -1.491955073100    1.499707545784    0.922821968372
 H    0.560044926900   -2.035292454216   -1.592178031628
 H    1.142044926900   -2.351292454216    0.029821968372
 H    2.958044926900   -1.956292454216   -1.673178031628
 H   -1.146955073100   -0.421292454216   -1.913178031628
 H    1.216044926900   -0.397292454216    1.675821968372
 H   -2.625955073100    1.351707545784   -0.915178031628
 H   -0.173955073100    1.368707545784    2.616821968372
 H   -2.122955073100    2.256707545784    1.366821968372
 H    3.069684926900   -0.840624454216   -0.287378031628
 H    2.418214926900   -0.292997154216   -1.886928031628
