7
-1 1 
 C   -0.503722781095    0.866178929387    1.027173650701
 C    0.027277218905   -0.042821070613   -0.069826349299
 O   -0.721722781095   -0.978821070613   -0.467826349299
 O    1.197277218905    0.156178929387   -0.500826349299
 H    0.095277218905    1.777178929387    1.098173650701
 H   -0.405722781095    0.350178929387    1.986173650701
 H   -1.563992781095    1.124988929387    0.889903650701
