8
0 1 
 C    0.306020493028    0.351815749834   -0.639888625337
 C   -0.311979506972   -0.353184250166    0.637111374663
 H    0.555020493028    1.390815749834   -0.410888625337
 H    1.220020493028   -0.160184250166   -0.947888625337
 H   -0.402979506972    0.337815749834   -1.464888625337
 H    0.442020493028   -0.269184250166    1.419111374663
 H   -1.233099506972    0.136115749834    0.986531374663
 H   -0.510029506972   -1.419084250166    0.451091374663
