11
0 1 
 C    0.449858151412    0.368306060449   -0.039163119352
 C    0.566858151412   -1.162693939551   -0.077163119352
 C   -0.986141848588    0.819306060449    0.117836880648
 H    1.084858151412    0.781306060449    0.732836880648
 H    0.840858151412    0.761306060449   -0.978163119352
 H    1.615858151412   -1.448693939551   -0.183163119352
 H   -1.697141848588    0.082306060449   -0.246163119352
 H   -1.183141848588    0.956306060449    1.173836880648
 H   -0.021531848588   -1.559948939551   -0.917395119352
 H    0.160388151412   -1.622436939551    0.835753880648
 H   -1.164191848588    1.753159060449   -0.435530119352
