10
-1 1 
 C   -0.848934130905   -0.089820936394   -0.662716061181
 C   -1.933934130905    0.298179063606    0.340283938819
 C    0.547065869095   -0.084820936394   -0.060716061181
 O    0.848065869095    0.812179063606    0.761283938819
 O    1.365065869095   -0.956820936394   -0.419716061181
 H   -1.080934130905   -1.070820936394   -1.075716061181
 H   -0.876934130905    0.638179063606   -1.474716061181
 H   -1.702934130905    1.300179063606    0.703283938819
 H   -1.952814130905   -0.399510936394    1.190503938819
 H   -2.889074130905    0.356609063606   -0.202206061181
