8
0 1 
 C    0.301723705264    0.388982312981   -0.596343908538
 C   -0.307276294736   -0.385017687019    0.594656091462
 H    0.543723705264    1.407982312981   -0.292343908538
 H    1.215723705264   -0.108017687019   -0.923343908538
 H   -0.407276294736    0.416982312981   -1.423343908538
 H    0.473723705264   -0.379017687019    1.346656091462
 H   -1.234454494736    0.038082312981    1.008546091462
 H   -0.525326594736   -1.423217687019    0.303926091462
