19
0 1 
 C    0.030302218899    0.633220297400   -2.449384278281
 C   -1.350697781101    1.168220297400   -2.796384278281
 C    0.114302218899    0.233220297400   -0.999384278281
 C    0.228302218899   -1.106779702600   -0.648384278281
 C    0.079302218899    1.197220297400    0.004615721719
 C    0.292302218899   -1.481779702600    0.702615721719
 C    0.154302218899    0.836220297400    1.350615721719
 C    0.244302218899   -0.508779702600    1.693615721719
 O    0.333302218899   -0.901779702600    2.977615721719
 H    0.253302218899   -0.227779702600   -3.081384278281
 H    0.775302218899    1.399220297400   -2.643384278281
 H   -1.443697781101    2.139220297400   -2.325384278281
 H    0.251302218899   -1.868779702600   -1.417384278281
 H    0.006302218899    2.242220297400   -0.262384278281
 H    0.354302218899   -2.520779702600    0.969615721719
 H    0.130302218899    1.582220297400    2.129615721719
 H    0.421302218899   -1.848779702600    3.053615721719
 H   -2.134315781101    0.512830867400   -2.388454278281
 H   -1.432203781101    1.343603697400   -3.879254278281
