18
0 1 
 C    1.738005036009   -0.850366658167   -0.741453467723
 C    1.366005036009   -2.000366658167   -1.696453467723
 C    0.546005036009   -0.125366658167   -0.148453467723
 C   -0.272994963991   -0.763366658167    0.784546532277
 C    0.242005036009    1.186633341833   -0.490453467723
 C   -1.377994963991   -0.119366658167    1.394546532277
 C   -0.874994963991    1.839633341833    0.132546532277
 C   -1.674994963991    1.194633341833    1.067546532277
 H    2.332005036009   -1.225366658167    0.093546532277
 H    2.325005036009   -0.114366658167   -1.291453467723
 H    0.828005036009   -2.767366658167   -1.133453467723
 H   -0.030994963991   -1.785366658167    1.034546532277
 H    0.854005036009    1.698633341833   -1.224453467723
 H   -1.993994963991   -0.633366658167    2.117546532277
 H   -1.136994963991    2.838633341833   -0.098453467723
 H   -2.509994963991    1.707633341833    1.526546532277
 H    2.288915036009   -2.418266658167   -2.124893467723
 H    0.722775036009   -1.611866658167   -2.499773467723
