13
1 1 
 C    0.637057882849    0.235443193053   -1.866777435023
 C   -0.149942117151   -0.066556806947    0.458222564977
 N    0.037057882849   -0.573556806947    1.660222564977
 N    0.720057882849   -0.316556806947   -0.508777435023
 N   -1.195942117151    0.707443193053    0.236222564977
 H    0.871057882849   -1.156556806947    1.819222564977
 H   -0.643942117151   -0.458556806947    2.392222564977
 H    1.453057882849   -0.999556806947   -0.307777435023
 H   -1.395942117151    1.020443193053   -0.711777435023
 H   -1.869942117151    0.920443193053    0.951222564977
 H    1.622057882849    0.197443193053   -2.336777435023
 H    0.353057882849    1.287443193053   -1.809777435023
 H   -0.092202117151   -0.283916806947   -2.505877435023
