8
0 1 
 C   -0.730316773323   -0.271685915757   -0.073903619401
 C    0.728683226677    0.272314084243    0.065096380599
 H   -0.742316773323   -1.358685915757   -0.036903619401
 H   -1.340316773323    0.121314084243    0.737096380599
 H   -1.155316773323    0.051314084243   -1.023903619401
 H    1.049683226677    0.030314084243    1.079096380599
 H    1.435699226677   -0.218989915757   -0.619555619401
 H    0.772018226677    1.367254084243   -0.030963619401
