9
0 1 
 C   -1.361477021393    0.155089488129   -0.534921740144
 C    0.674522978607   -0.001910511871    1.358078259856
 S    0.353522978607   -0.072910511871   -0.419921740144
 H   -1.577477021393    1.178089488129   -0.839921740144
 H   -1.753477021393   -0.509910511871   -1.304921740144
 H   -1.846477021393   -0.089910511871    0.411078259856
 H    0.564522978607   -1.014910511871    1.748078259856
 H   -0.093477021393    0.559089488129    1.862078259856
 H    1.670725978607    0.366677488129    1.643951359856
