11
0 1 
 C   -0.534372818290    0.111758995619   -0.061845711748
 C    0.326627181710    0.807758995619    1.007154288252
 C    0.178627181710   -0.919241004381   -0.946845711748
 H   -1.371372818290   -0.380241004381    0.434154288252
 H   -0.947372818290    0.883758995619   -0.696845711748
 H    0.753627181710    0.072758995619    1.691154288252
 H    1.059627181710   -0.457241004381   -1.392845711748
 H   -0.314898818290    1.514268995619    1.554227288252
 H    1.128290181710    1.394448995619    0.534784288252
 H    0.506610181710   -1.773441004381   -0.336293011748
 H   -0.467801818290   -1.257611004381   -1.770033311748
