8
0 1 
 C   -0.029866742748   -0.760919723280   -0.084696447843
 C    0.027133257252    0.763080276720    0.085303552157
 H    0.251133257252   -1.039919723280   -1.097696447843
 H    0.665133257252   -1.254919723280    0.595303552157
 H   -1.040866742748   -1.124919723280    0.111303552157
 H    1.055133257252    1.097080276720   -0.069696447843
 H   -0.284791142748    1.028502276720    1.106213552157
 H   -0.613194742748    1.268451276720   -0.652656447843
