8
0 1 
 C   -0.333687743311   -0.677234349936    0.105010856010
 C    0.337312256689    0.677765650064   -0.106989143990
 H    0.297312256689   -1.335234349936    0.704010856010
 H   -1.279687743311   -0.542234349936    0.630010856010
 H   -0.531687743311   -1.137234349936   -0.861989143990
 H    0.555312256689    1.104765650064    0.872010856010
 H    1.268652256689    0.556285650064   -0.679569143990
 H   -0.353057743311    1.347325650064   -0.640919143990
