12
0 1 
 C    0.560992680461   -0.294492639009   -2.123113190193
 C   -0.592007319539   -0.934492639009    0.091886809807
 C    0.145992680461   -0.118492639009   -0.695113190193
 C    0.036992680461    0.799507360991    1.322886809807
 N   -0.703007319539   -0.302492639009    1.321886809807
 N    0.582992680461    0.921507360991    0.122886809807
 H   -1.040007319539   -1.873492639009   -0.198113190193
 H   -1.230007319539   -0.645492639009    2.117886809807
 H    0.465992680461    0.655507360991   -2.651113190193
 H   -0.119007319539   -1.009492639009   -2.587113190193
 H    0.189992680461    1.467507360991    2.163886809807
 H    1.591072680461   -0.670752639009   -2.208953190193
