19
0 1 
 C    2.019148679341    0.083509295275    1.558344336418
 C    2.423148679341   -1.315490704725    2.046344336418
 C    0.802148679341    0.127509295275    0.627344336418
 C    0.934148679341   -0.176490704725   -0.753655663582
 C   -0.461851320659    0.479509295275    1.124344336418
 C   -0.165851320659   -0.131490704725   -1.631655663582
 C   -1.571851320659    0.539509295275    0.257344336418
 C   -1.411851320659    0.233509295275   -1.114655663582
 O   -2.477851320659    0.305509295275   -1.974655663582
 H    1.819148679341    0.676509295275    2.453344336418
 H    2.879148679341    0.512509295275    1.040344336418
 H    3.249148679341   -1.216490704725    2.752344336418
 H    1.910148679341   -0.450490704725   -1.134655663582
 H   -0.578851320659    0.705509295275    2.175344336418
 H   -0.079851320659   -0.382490704725   -2.681655663582
 H   -2.544851320659    0.822509295275    0.638344336418
 H   -2.245851320659    0.092509295275   -2.885655663582
 H    2.744000679341   -1.929260704725    1.191744336418
 H    1.606023679341   -1.775260704725    2.621604336418
