11
0 1 
 C    0.453708648440   -0.145767134974    0.294151517035
 C   -0.767291351560    0.488232865026    0.963151517035
 C    0.341708648440   -0.347767134974   -1.242848482965
 H    1.305708648440    0.497232865026    0.514151517035
 H    0.606708648440   -1.112767134974    0.775151517035
 H   -1.644291351560   -0.107767134974    0.722151517035
 H    0.104708648440    0.607232865026   -1.720848482965
 H    1.324708648440   -0.676767134974   -1.588848482965
 H   -0.928551351560    1.516942865026    0.608531517035
 H   -0.694171351560    0.432482865026    2.059301517035
 H   -0.409711351560   -1.093467134974   -1.541698482965
