9
0 1 
 C   -0.006825782031    0.517038973859    0.207919478412
 C    1.176174217969   -0.441961026141    0.375919478412
 O   -1.057825782031   -0.106961026141   -0.509080521588
 H   -0.358825782031    0.830038973859    1.189919478412
 H    0.330174217969    1.404038973859   -0.329080521588
 H    1.878174217969    0.009038973859    1.078919478412
 H   -1.502825782031    0.572038973859   -1.035080521588
 H    1.676327217969   -0.616222026141   -0.588180521588
 H    0.842207217969   -1.395325026141    0.811309478412
