7
-1 1 
 C    0.515207226797    0.181521612523   -1.322740991505
 C   -0.034792773203   -0.007478387477    0.083259008495
 O    0.089207226797    0.946521612523    0.894259008495
 O   -0.573792773203   -1.114478387477    0.348259008495
 H    0.826207226797   -0.786478387477   -1.729740991505
 H    1.419207226797    0.786521612523   -1.263740991505
 H   -0.274902773203    0.593249812523   -1.967880991505
