9
0 1 
 C    1.453120664288    0.237482151264   -0.339671791854
 C   -0.911879335712    0.353482151264    1.141328208146
 S   -0.273879335712   -0.299517848736   -0.408671791854
 H    1.865120664288    0.054482151264    0.649328208146
 H    2.041120664288   -0.302517848736   -1.080671791854
 H    1.511120664288    1.306482151264   -0.549671791854
 H   -0.315879335712   -0.022517848736    1.974328208146
 H   -1.928879335712   -0.023517848736    1.254328208146
 H   -0.928569335712    1.452932151264    1.171808208146
