8
0 1 
 C   -0.545334645289   -0.291289603631   -0.448882190146
 C    0.544665354711    0.295710396369    0.451117809854
 H   -1.429334645289    0.348710396369   -0.435882190146
 H   -0.186334645289   -0.380289603631   -1.472882190146
 H   -0.826334645289   -1.290289603631   -0.112882190146
 H    1.410665354711   -0.360289603631    0.418117809854
 H    0.181529354711    0.343600396369    1.488343809854
 H    0.857778354711    1.285920396369    0.088565809854
