8
0 1 
 C    0.450358086110    0.020918207222    0.641461896657
 C   -0.444641913890   -0.030081792778   -0.641538103343
 H    1.500358086110   -0.089081792778    0.373461896657
 H    0.311358086110    0.984918207222    1.131461896657
 H    0.164358086110   -0.768081792778    1.335461896657
 H   -0.175641913890    0.812918207222   -1.279538103343
 H   -1.480641913890    0.130918207222   -0.337538103343
 H   -0.387851913890   -0.962481792778   -1.222402103343
