12
0 1 
 C    0.180262544359   -1.044359924679    0.521991827442
 C   -1.232737455641   -1.515359924679    0.196991827442
 C   -0.335737455641    1.660640075321    0.257991827442
 S    0.689262544359    0.387640075321   -0.479008172558
 H    0.184262544359   -0.728359924679    1.565991827442
 H    0.902262544359   -1.841359924679    0.475991827442
 H   -1.318737455641   -1.623359924679   -0.883008172558
 H   -1.924737455641   -0.729359924679    0.501991827442
 H   -0.156737455641    1.705640075321    1.331991827442
 H   -0.087737455641    2.625640075321   -0.185008172558
 H   -1.388737455641    1.449640075321    0.071991827442
 H   -1.546679455641   -2.450719924679    0.683351827442
