12
0 1 
 C   -0.187906288754   -0.075825133146   -2.210896488076
 C    0.794093711246   -0.229825133146    1.282103511924
 C   -0.995906288754    0.468174866854    0.224103511924
 C   -0.132906288754   -0.038825133146   -0.703896488076
 N   -0.424906288754    0.264174866854    1.460103511924
 N    1.004093711246   -0.414825133146   -0.017896488076
 H   -0.818906288754    0.486174866854    2.379103511924
 H    1.500093711246   -0.454825133146    2.075103511924
 H   -1.969906288754    0.899174866854    0.041103511924
 H   -0.268906288754   -1.118825133146   -2.516896488076
 H    0.751093711246    0.318174866854   -2.586896488076
 H   -1.018093288754    0.490444866854   -2.658255488076
