8
0 1 
 C   -0.529445608352   -0.227088411044   -0.499799756201
 C    0.532554391648    0.221911588956    0.500200243799
 H   -0.493445608352   -1.307088411044   -0.631799756201
 H   -1.517445608352    0.056911588956   -0.137799756201
 H   -0.364445608352    0.264911588956   -1.456799756201
 H    0.488554391648    1.308911588956    0.572200243799
 H    1.533257291648   -0.073428411044    0.151820243799
 H    0.316509391648   -0.188578411044    1.497610243799
