9
0 1 
 C   -0.660907647604   -0.523962206302   -0.015220801837
 C   -0.886907647604   -0.354962206302   -1.527220801837
 S    0.715092352396    0.422037793698    0.677779198163
 H   -1.577907647604   -0.267962206302    0.514779198163
 H   -0.459907647604   -1.578962206302    0.169779198163
 H   -1.541907647604   -1.146962206302   -1.881220801837
 H    0.653092352396   -0.105962206302    1.904779198163
 H    0.054269352396   -0.424092206302   -2.092380801837
 H   -1.383536147604    0.600487793698   -1.751900801837
