8
0 1 
 C    0.249904496295    0.691374063439   -0.260611710080
 C   -0.246095503705   -0.683625936561    0.263388289920
 H    1.312904496295    0.796374063439   -0.064611710080
 H    0.076904496295    0.764374063439   -1.336611710080
 H   -0.288095503705    1.495374063439    0.240388289920
 H    0.285904496295   -1.478625936561   -0.259611710080
 H   -1.313095503705   -0.782625936561    0.050388289920
 H   -0.119875503705   -0.887125936561    1.336998289920
