16
0 1 
 C   -2.940167771508    0.126918052257    0.183920367991
 C   -0.778167771508   -0.067081947743   -1.145079632009
 C   -1.424167771508    0.028918052257    0.101920367991
 C    0.609832228492   -0.102081947743   -1.235079632009
 C    1.372832228492   -0.058081947743   -0.068079632009
 C   -0.650167771508    0.122918052257    1.265920367991
 C    0.746832228492    0.042918052257    1.181920367991
 O    2.738832228492   -0.086081947743   -0.186079632009
 H   -1.372167771508   -0.108081947743   -2.050079632009
 H    1.091832228492   -0.181081947743   -2.200079632009
 H   -3.286167771508   -0.411081947743    1.067920367991
 H   -3.362167771508   -0.372081947743   -0.689079632009
 H   -1.128167771508    0.223918052257    2.230920367991
 H    3.021832228492   -0.166081947743   -1.104079632009
 H    1.349832228492    0.093918052257    2.077920367991
 H   -3.309387771508    1.162438052257    0.221060367991
