12
0 1 
 C    0.945582269591   -0.469835938033   -0.124306400395
 C    1.528582269591   -0.061835938033   -1.443306400395
 C   -0.996417730409   -0.067835938033    1.633693599605
 S   -0.685417730409    0.286164061967   -0.063306400395
 H    0.855582269591   -1.551835938033   -0.064306400395
 H    1.565582269591   -0.098835938033    0.690693599605
 H    1.531582269591    1.027164061967   -1.514306400395
 H    0.861582269591   -0.436835938033   -2.223306400395
 H   -0.185417730409    0.294164061967    2.260693599605
 H   -1.927417730409    0.413164061967    1.938693599605
 H   -1.095417730409   -1.145835938033    1.770693599605
 H    2.542722269591   -0.441131938033   -1.637346400395
