9
0 1 
 C   -0.050344854371    0.561392205445   -0.096969291041
 C   -1.228344854371   -0.399607794555   -0.010969291041
 O    1.160655145629   -0.119607794555    0.151030708959
 H   -0.026344854371    1.037392205445   -1.073969291041
 H   -0.169344854371    1.336392205445    0.660030708959
 H   -1.159344854371   -1.106607794555   -0.835969291041
 H    1.511655145629   -0.480607794555   -0.685969291041
 H   -2.172575854371    0.157112205445   -0.103126291041
 H   -1.179344854371   -0.971757794555    0.927242708959
