8
0 1 
 C    0.402237123338    0.341522422636   -0.547153030537
 C   -0.398762876662   -0.348477577364    0.546846969463
 H    0.707237123338   -0.383477577364   -1.302153030537
 H   -0.212762876662    1.103522422636   -1.030153030537
 H    1.285237123338    0.817522422636   -0.121153030537
 H   -0.796762876662    0.433522422636    1.196846969463
 H    0.232627123338   -1.012465177364    1.155502269463
 H   -1.256942876662   -0.875810677364    0.104754069463
