8
0 1 
 C   -0.416074094495    0.429131957759   -0.471645129081
 C    0.409925905505   -0.433868042241    0.472354870919
 H   -1.406074094495    0.615131957759   -0.054645129081
 H    0.089925905505    1.384131957759   -0.614645129081
 H   -0.512074094495   -0.065868042241   -1.437645129081
 H    0.489925905505    0.090131957759    1.424354870919
 H    1.410925905505   -0.523868042241    0.048354870919
 H    0.000575905505   -1.443268042241    0.625774870919
