22
0 1 
 C   -2.216368391083   -1.227464039795   -0.664773603272
 C   -3.317368391083   -1.076464039795    0.370226396728
 C   -0.822368391083   -1.011464039795   -0.173773603272
 C   -0.027368391083   -1.949464039795    0.419226396728
 C   -0.055368391083    0.192535960205   -0.231773603272
 C    1.221631608917   -0.085464039795    0.341226396728
 C   -0.290368391083    1.483535960205   -0.710773603272
 C    2.207631608917    0.882535960205    0.455226396728
 C    0.698631608917    2.448535960205   -0.614773603272
 C    1.948631608917    2.148535960205   -0.033773603272
 N    1.182631608917   -1.397464039795    0.732226396728
 H   -2.270368391083   -2.233464039795   -1.084773603272
 H   -2.404368391083   -0.525464039795   -1.474773603272
 H   -3.118368391083   -1.762464039795    1.195226396728
 H   -0.318368391083   -2.978464039795    0.611226396728
 H    1.936631608917   -1.904464039795    1.185226396728
 H   -1.235368391083    1.703535960205   -1.175773603272
 H    3.161631608917    0.646535960205    0.905226396728
 H    0.512631608917    3.436535960205   -1.009773603272
 H    2.709631608917    2.915535960205    0.026226396728
 H   -4.289398391083   -1.322463039795   -0.082143603272
 H   -3.344788391083   -0.054613239795    0.776516396728
