8
0 1 
 C   -0.688112083823   -0.328560055901   -0.168559430102
 C    0.688887916177    0.331439944099    0.169440569898
 H   -0.789112083823   -0.441560055901   -1.249559430102
 H   -0.754112083823   -1.313560055901    0.296440569898
 H   -1.504112083823    0.285439944099    0.214440569898
 H    0.696887916177    0.632439944099    1.217440569898
 H    0.853903716177    1.206019944099   -0.476990430102
 H    1.487306916177   -0.403070055901   -0.012263430102
