11
0 1 
 C    0.281148772327    0.439859877973   -0.234390462885
 C   -0.684851227673   -0.475140122027   -1.018390462885
 C    0.418148772327    0.062859877973    1.238609537115
 H    1.261148772327    0.401859877973   -0.712390462885
 H   -0.094851227673    1.459859877973   -0.289390462885
 H   -0.661851227673   -0.177140122027   -2.069390462885
 H   -0.555851227673    0.136859877973    1.725609537115
 H    0.770148772327   -0.965140122027    1.327609537115
 H   -1.709461227673   -0.376130122027   -0.630600462885
 H   -0.317071227673   -1.510028122027   -0.957210462885
 H    1.135778772327    0.701472877973    1.774499537115
