11
0 1 
 C   -0.154561398824    0.175482455096    0.514175840331
 C    1.028438601176    0.770482455096   -0.245824159669
 C   -0.867561398824   -0.943517544904   -0.233824159669
 H    0.152438601176   -0.159517544904    1.506175840331
 H   -0.883561398824    0.974482455096    0.659175840331
 H    0.698438601176    1.042482455096   -1.249824159669
 H   -1.893561398824   -0.985517544904    0.135175840331
 H   -0.922561398824   -0.689517544904   -1.293824159669
 H    1.841058601176    0.032422455096   -0.315864159669
 H    1.348608601176    1.694852455096    0.257195840331
 H   -0.416061398824   -1.938827544904   -0.109324159669
