8
0 1 
 C   -0.573196497688   -0.001094800265   -0.505656516947
 C    0.576803502312   -0.001094800265    0.503343483053
 H   -1.390196497688   -0.629094800265   -0.148656516947
 H   -0.952196497688    1.011905199735   -0.626656516947
 H   -0.226196497688   -0.380094800265   -1.468656516947
 H    0.199803502312    0.361905199735    1.458343483053
 H    0.955325502312   -1.025244800265    0.636893483053
 H    1.370512502312    0.686695199735    0.176273483053
