8
0 1 
 C    0.511763760238   -0.564902729143    0.047367420316
 C   -0.513236239762    0.565097270857   -0.051632579684
 H    1.526763760238   -0.164902729143    0.031367420316
 H    0.367763760238   -1.109902729143    0.978367420316
 H    0.390763760238   -1.247902729143   -0.794632579684
 H   -0.376236239762    1.215097270857    0.808367420316
 H   -0.358866239762    1.150557270857   -0.970012579684
 H   -1.532656239762    0.154737270857   -0.002672579684
