19
0 1 
 C   -2.346840806770    0.669596491887   -0.659294235599
 C   -3.251840806770   -0.564403508113   -0.758294235599
 C   -0.917840806770    0.364596491887   -0.266294235599
 C    0.039159193230    0.062596491887   -1.234294235599
 C   -0.532840806770    0.389596491887    1.072705764401
 C    1.354159193230   -0.213403508113   -0.873294235599
 C    0.780159193230    0.113596491887    1.442705764401
 C    1.724159193230   -0.187403508113    0.466705764401
 O    3.010159193230   -0.457403508113    0.826705764401
 H   -2.347840806770    1.178596491887   -1.624294235599
 H   -2.753840806770    1.366596491887    0.068705764401
 H   -2.906840806770   -1.170403508113   -1.598294235599
 H   -0.243840806770    0.039596491887   -2.280294235599
 H   -1.260840806770    0.637596491887    1.832705764401
 H    2.086159193230   -0.444403508113   -1.636294235599
 H    1.074159193230    0.136596491887    2.482705764401
 H    3.579159193230   -0.597403508113    0.060705764401
 H   -4.294267606770   -0.262253508113   -0.937324235599
 H   -3.178349806770   -1.183313508113    0.148095764401
