8
0 1 
 C   -0.273030858341   -0.514445188093   -0.502333207808
 C    0.272969141659    0.509554811907    0.506666792192
 H   -0.313030858341   -1.504445188093   -0.046333207808
 H   -1.272030858341   -0.229445188093   -0.833333207808
 H    0.376969141659   -0.545445188093   -1.376333207808
 H    0.152969141659    1.499554811907    0.063666792192
 H    1.346169141659    0.352104811907    0.689566792192
 H   -0.290310858341    0.485904811907    1.451166792192
