8
0 1 
 C   -0.225338376112   -0.603932452813   -0.406727451843
 C    0.232661623888    0.603067547187    0.405272548157
 H    0.232661623888   -1.518932452813   -0.034727451843
 H   -1.305338376112   -0.709932452813   -0.311727451843
 H    0.024661623888   -0.463932452813   -1.457727451843
 H    0.130661623888    0.354067547187    1.462272548157
 H   -0.433338376112    1.438067547187    0.183272548157
 H    1.263495223888    0.910960547187    0.175960548157
