8
0 1 
 C   -0.352287574801   -0.469564203576    0.502343360379
 C    0.346712425199    0.474435796424   -0.502656639621
 H   -0.749287574801   -1.349564203576   -0.002656639621
 H    0.375712425199   -0.815564203576    1.231343360379
 H   -1.157287574801    0.056435796424    1.015343360379
 H    1.169712425199   -0.086564203576   -0.937656639621
 H   -0.333912774801    0.781145796424   -1.310536639621
 H    0.761445425199    1.356105796424    0.007893360379
