11
0 1 
 C    0.105360220787    0.533094631581   -0.185247843244
 C    1.019360220787   -0.209905368419    0.798752156756
 C   -1.117639779213   -0.285905368419   -0.627247843244
 H   -0.235639779213    1.450094631581    0.285752156756
 H    0.688360220787    0.805094631581   -1.066247843244
 H    0.429360220787   -0.526905368419    1.662752156756
 H   -0.768639779213   -1.220905368419   -1.052247843244
 H   -1.739639779213   -0.507905368419    0.241752156756
 H    1.840130220787    0.436534631581    1.142921656756
 H    1.419640220787   -1.121935368419    0.331878256756
 H   -1.717879779213    0.241994631581   -1.382918843244
