11
0 1 
 C   -0.183018097400    0.332226289390    0.538003500690
 C   -0.828018097400    0.314226289390   -0.875996499310
 C    0.997981902600   -0.613773710610    0.385003500690
 H   -0.904018097400   -0.060773710610    1.256003500690
 H    0.132981902600    1.337226289390    0.819003500690
 H   -1.863018097400    0.653226289390   -0.851996499310
 H   -0.236018097400    0.924226289390   -1.560996499310
 H    1.857981902600   -0.060773710610    0.000003500690
 H   -0.755968097400   -0.745705710610   -1.161220499310
 H    0.645501902600   -1.318727710610   -0.382326499310
 H    1.277991902600   -1.117799710610    1.321783500690
