8
0 1 
 C   -0.101892592875    0.121948419586    0.752882587835
 C    0.109107407125   -0.115051580414   -0.750117412165
 H    0.823107407125    0.444948419586    1.213882587835
 H   -0.874892592875    0.874948419586    0.900882587835
 H   -0.412892592875   -0.813051580414    1.207882587835
 H   -0.859892592875   -0.410051580414   -1.156117412165
 H    0.803727407125   -0.955761580414   -0.894057412165
 H    0.434937407125    0.776848419586   -1.305397412165
