9
0 1 
 C    0.811345290094    1.171746000913   -0.276291232948
 C    0.015345290094   -0.081253999087    0.010708767052
 O    0.488345290094   -1.214253999087   -0.138291232948
 N   -1.236654709906    0.107746000913    0.381708767052
 H    0.391345290094    2.007746000913    0.286708767052
 H    0.730345290094    1.390746000913   -1.333291232948
 H   -1.797654709906   -0.703253999087    0.594708767052
 H   -1.604654709906    1.039746000913    0.504708767052
 H    1.869475290094    1.054746000913    0.000596767052
