8
0 1 
 C    0.575656091462   -0.501520141308    0.005789374585
 C   -0.577343908538    0.504479858692   -0.009210625415
 H    1.364656091462   -0.183520141308   -0.680210625415
 H    0.999656091462   -0.575520141308    1.006789374585
 H    0.232656091462   -1.500520141308   -0.269210625415
 H   -1.408343908538    0.085479858692    0.557789374585
 H   -0.913703908538    0.695459858692   -1.038960625415
 H   -0.254823908538    1.443379858692    0.464539374585
