7
-1 1 
 C   -0.172609005479   -0.139549026026    1.408501546122
 C    0.007390994521    0.012450973974   -0.077498453878
 O   -1.002609005479    0.074450973974   -0.791498453878
 O    1.164390994521    0.060450973974   -0.544498453878
 H    0.615390994521    0.386450973974    1.948501546122
 H   -0.058609005479   -1.201549026026    1.632501546122
 H   -1.157157005479    0.187440973974    1.774211546122
