8
0 1 
 C   -0.416426543732    0.536627581038   -0.336639623435
 C    0.416573456268   -0.538372418962    0.332360376565
 H   -0.700426543732    0.237627581038   -1.345639623435
 H   -1.316426543732    0.716627581038    0.253360376565
 H    0.164573456268    1.455627581038   -0.376639623435
 H    0.655573456268   -0.204372418962    1.341360376565
 H    1.352483456268   -0.710362418962   -0.219439623435
 H   -0.157526543732   -1.474372418962    0.397950376565
