11
0 1 
 C    0.384740106702   -0.248324099072   -0.491752279468
 C    0.415740106702   -0.507324099072    1.052247720532
 C   -0.764259893298    0.732675900928   -0.603752279468
 H    0.152740106702   -1.177324099072   -1.002752279468
 H    1.282740106702    0.189675900928   -0.926752279468
 H   -0.303259893298   -1.281324099072    1.335247720532
 H    1.405740106702   -0.804324099072    1.383247720532
 H   -0.782259893298    1.305675900928   -1.528752279468
 H    0.122610106702    0.452135900928    1.503377720532
 H   -0.587399893298    1.388835900928    0.261217720532
 H   -1.722179893298    0.200175900928   -0.509782279468
