11
0 1 
 C   -0.048601118642    0.204447620132    0.529476999579
 C    1.038398881358   -0.801552379868    0.101476999579
 C   -0.998601118642    0.613447620132   -0.596523000421
 H   -0.623601118642   -0.235552379868    1.344476999579
 H    0.430398881358    1.101447620132    0.910476999579
 H    1.739398881358   -0.941552379868    0.916476999579
 H   -0.400601118642    1.043447620132   -1.400523000421
 H   -1.482601118642   -0.284552379868   -0.983523000421
 H    1.610857881358   -0.434727379868   -0.763233000421
 H    0.599556881358   -1.779893979868   -0.144013000421
 H   -1.768589118642    1.336791620132   -0.290103000421
