11
0 1 
 C    0.076511899296   -0.385137390260    0.404897888270
 C   -1.211488100704   -0.300137390260   -0.436102111730
 C    1.133511899296    0.662862609740    0.057897888270
 H   -0.181488100704   -0.282137390260    1.459897888270
 H    0.539511899296   -1.363137390260    0.281897888270
 H   -0.925488100704   -0.216137390260   -1.487102111730
 H    0.771511899296    1.666862609740    0.270897888270
 H    2.026511899296    0.481862609740    0.656897888270
 H    1.392511899296    0.589862609740   -0.998102111730
 H   -1.818398100704   -1.210864390260   -0.325492111730
 H   -1.787238100704    0.600546609740   -0.176732111730
