8
0 1 
 C   -0.149105393688    0.728666209555   -0.175007575608
 C    0.147894606312   -0.732333790445    0.169992424392
 H   -0.685105393688    0.797666209555   -1.123007575608
 H   -0.761105393688    1.178666209555    0.604992424392
 H    0.763894606312    1.319666209555   -0.225007575608
 H    0.731894606312   -0.747333790445    1.091992424392
 H    0.745670606312   -1.206259790445   -0.622507575608
 H   -0.780832393688   -1.298735790445    0.333252424392
