8
0 1 
 C   -0.528734349936    0.352152630923    0.419574914863
 C    0.529265650064   -0.354847369077   -0.422425085137
 H   -1.245734349936    0.861152630923   -0.226425085137
 H   -1.062734349936   -0.359847369077    1.038574914863
 H   -0.053734349936    1.086152630923    1.071574914863
 H    1.241265650064   -0.818847369077    0.248574914863
 H    1.047545650064    0.390582630923   -1.043495085137
 H    0.067065650064   -1.127107369077   -1.054868085137
