11
0 1 
 C   -0.354408080599   -0.375556325580   -0.370885508003
 C   -0.807408080599    0.869443674420    0.397114491997
 C    1.128591919401   -0.529556325580   -0.051885508003
 H   -0.504408080599   -0.204556325580   -1.437885508003
 H   -0.917408080599   -1.252556325580   -0.053885508003
 H   -1.695408080599    1.326443674420   -0.038885508003
 H   -0.958408080599    0.626443674420    1.449114491997
 H    1.265591919401   -1.172556325580    0.817114491997
 H    0.078111919401    1.514243674420    0.296635591997
 H    1.445541919401    0.493745674420    0.197902791997
 H    1.681981919401   -0.906503325580   -0.924623008003
