8
0 1 
 C    0.219405009041    0.729006250244    0.011577234985
 C   -0.225594990959   -0.726993749756   -0.013422765015
 H   -0.625594990959    1.384006250244    0.223577234985
 H    0.963405009041    0.836006250244    0.791577234985
 H    0.705405009041    1.026006250244   -0.917422765015
 H    0.625405009041   -1.344993749756   -0.290422765015
 H   -1.017328990959   -0.874673749756   -0.762652765015
 H   -0.577587990959   -1.050313749756    0.977318234985
