13
1 1 
 C    0.304516296786   -0.946053285955    1.722253890565
 C   -0.059483703214    0.229946714045   -0.425746109435
 N   -0.372483703214    0.151946714045   -1.684746109435
 N    0.020516296786   -0.880053285955    0.291253890565
 N    0.118516296786    1.397946714045    0.109253890565
 H   -0.489483703214   -0.744053285955   -2.128746109435
 H   -0.265483703214    0.946946714045   -2.293746109435
 H   -0.215483703214   -1.745053285955   -0.174746109435
 H    0.317516296786    1.465946714045    1.091253890565
 H   -0.073483703214    2.228946714045   -0.426746109435
 H   -0.248483703214   -1.791053285955    2.137253890565
 H   -0.067483703214   -0.059053285955    2.236253890565
 H    1.368476296786   -1.083062285955    1.965583890565
