8
0 1 
 C   -0.498296541011    0.559844456697    0.117161335456
 C    0.503703458989   -0.556155543303   -0.116838664544
 H   -0.834296541011    0.979844456697   -0.831838664544
 H   -1.374296541011    0.153844456697    0.621161335456
 H   -0.051296541011    1.337844456697    0.733161335456
 H    0.033703458989   -1.275155543303   -0.787838664544
 H    1.431033458989   -0.176825543303   -0.570898664544
 H    0.730773458989   -1.063475543303    0.832411335456
