11
0 1 
 C    0.464884622178   -0.312582207581    0.073517454689
 C   -0.312115377822    0.322417792419    1.233517454689
 C   -0.126115377822   -0.025582207581   -1.297482545311
 H    1.489884622178    0.062417792419    0.089517454689
 H    0.523884622178   -1.386582207581    0.194517454689
 H   -1.360115377822    0.042417792419    1.147517454689
 H   -0.153115377822    1.037417792419   -1.521482545311
 H    0.478884622178   -0.522582207581   -2.056482545311
 H   -1.140115377822   -0.422582207581   -1.347482545311
 H    0.090774622178   -0.042682207581    2.189753454689
 H   -0.247445377822    1.419667792419    1.190403454689
