15
0 1 
 C    2.280262551363   -0.830147978361   -0.056782379311
 C   -1.726737448637    0.635852021639    0.026217620689
 C   -1.474737448637   -0.665147978361   -0.381782379311
 C   -0.682737448637    1.457852021639    0.420217620689
 C   -0.174737448637   -1.143147978361   -0.402782379311
 C    0.616262551363    0.978852021639    0.398217620689
 C    0.875262551363   -0.327147978361   -0.000782379311
 H   -2.740737448637    1.007852021639    0.050217620689
 H   -2.295737448637   -1.305147978361   -0.676782379311
 H   -0.888737448637    2.464852021639    0.754217620689
 H    0.011262551363   -2.163147978361   -0.706782379311
 H    1.428262551363    1.624852021639    0.700217620689
 H    2.271262551363   -1.915147978361   -0.179782379311
 H    2.768262551363   -0.616147978361    0.896217620689
 H    2.865352551363   -0.371567978361   -0.867568379311
