8
0 1 
 C   -0.571253714039    0.174236378739    0.479078918750
 C    0.575746285961   -0.177763621261   -0.473921081250
 H   -0.390253714039    1.117236378739    0.992078918750
 H   -1.494253714039    0.279236378739   -0.092921081250
 H   -0.706253714039   -0.621763621261    1.214078918750
 H    0.699746285961    0.658236378739   -1.160921081250
 H    1.516526285961   -0.336353621261    0.073608918750
 H    0.320996285961   -1.054593621261   -1.087338081250
