8
0 1 
 C    0.512530416553    0.280443404638   -0.492410746539
 C   -0.513469583447   -0.276556595362    0.486589253461
 H    0.742530416553    1.307443404638   -0.232410746539
 H    1.433530416553   -0.299556595362   -0.442410746539
 H    0.098530416553    0.227443404638   -1.497410746539
 H   -0.175469583447   -0.042556595362    1.496589253461
 H   -1.524379583447    0.133013404638    0.344039253461
 H   -0.563559583447   -1.372066595362    0.400919253461
