8
1 1 
 C    0.355530055818    0.580747052578   -0.381434369568
 N   -0.307469944182   -0.518252947422    0.345565630432
 H   -0.130469944182   -0.493252947422    1.347565630432
 H   -1.312469944182   -0.473252947422    0.219565630432
 H   -0.009469944182   -1.428252947422    0.002565630432
 H   -0.175469944182    1.517747052578   -0.181434369568
 H    0.243530055818    0.395747052578   -1.454434369568
 H    1.423209355818    0.767197052578   -0.193564369568
