18
0 1 
 C   -1.087325924969    1.096779347756    0.208915891150
 C   -0.472325924969    2.400779347756   -0.247084108850
 C    0.609674075031    0.621779347756   -1.406084108850
 C   -0.428325924969   -1.496220652244    1.598915891150
 C    0.268674075031   -1.045220652244    0.318915891150
 O    1.133674075031   -1.763220652244   -0.198084108850
 N   -0.082325924969    0.125779347756   -0.220084108850
 H   -1.241325924969    1.066779347756    1.283915891150
 H   -2.034325924969    0.907779347756   -0.303084108850
 H    0.409674075031    2.671779347756    0.339915891150
 H   -1.170325924969    3.233779347756   -0.265084108850
 H    0.479674075031   -0.084220652244   -2.231084108850
 H   -0.307325924969   -0.647220652244    2.266915891150
 H   -0.189735924969    2.082599347756   -1.261434108850
 H    0.114354075031    1.584929347756   -1.598424108850
 H    1.682004075031    0.746549347756   -1.195044108850
 H   -1.493165924969   -1.757340652244    1.509865891150
 H    0.114304075031   -2.357190652244    2.016375891150
