9
0 1 
 C    0.110539475398   -1.394857152567    0.389453794378
 C    0.040539475398    0.067142847433   -0.012546205622
 O    0.991539475398    0.843142847433    0.162453794378
 N   -1.076460524602    0.448142847433   -0.541546205622
 H   -1.083460524602    1.400142847433   -0.889546205622
 H   -1.950460524602    0.013142847433   -0.300546205622
 H    0.006539475398   -1.385857152567    1.477453794378
 H    1.117539475398   -1.769857152567    0.187453794378
 H   -0.668760524602   -2.056647152567   -0.016416205622
