9
0 1 
 C   -1.183155356434   -0.282954209366   -0.796723072260
 C    0.087844643566   -0.018954209366   -0.003723072260
 O    1.075844643566   -0.749954209366   -0.060723072260
 N    0.028844643566    0.994045790634    0.805276927740
 H   -2.003155356434    0.331045790634   -0.419723072260
 H   -1.455155356434   -1.330954209366   -0.664723072260
 H    0.854844643566    1.215045790634    1.341276927740
 H   -0.814155356434    1.538045790634    0.911276927740
 H   -1.015914356434   -0.067714209366   -1.862413072260
