16
0 1 
 C   -1.064159590619    2.489920042180    1.170938084205
 C   -0.502159590619    1.216920042180    0.569938084205
 C   -1.344159590619    0.129920042180    0.302938084205
 C    0.859840409381    1.097920042180    0.264938084205
 C   -0.849159590619   -1.048079957820   -0.253061915795
 C    1.367840409381   -0.088079957820   -0.289061915795
 C    0.507840409381   -1.160079957820   -0.549061915795
 O    0.973840409381   -2.326079957820   -1.087061915795
 H   -0.381159590619    3.315920042180    0.964938084205
 H   -1.123159590619    2.383920042180    2.250938084205
 H   -2.397159590619    0.161920042180    0.525938084205
 H    1.523840409381    1.929920042180    0.454938084205
 H   -1.519159590619   -1.874079957820   -0.451061915795
 H    2.417840409381   -0.188079957820   -0.520061915795
 H    0.269840409381   -2.968079957820   -1.228061915795
 H   -2.052449590619    2.739680042180    0.757538084205
