18
0 1 
 C    1.433209032673   -0.238634584533   -1.439873541193
 C    2.698209032673   -0.883634584533   -0.862873541193
 C    0.304209032673   -0.022634584533   -0.452873541193
 C    0.533209032673    0.379365415467    0.870126458807
 C   -1.010790967327   -0.142634584533   -0.896873541193
 C   -0.539790967327    0.580365415467    1.745126458807
 C   -2.074790967327    0.058365415467   -0.029873541193
 C   -1.845790967327    0.416365415467    1.292126458807
 H    1.690209032673    0.729365415467   -1.870873541193
 H    1.068209032673   -0.872634584533   -2.248873541193
 H    3.126209032673   -0.228634584533   -0.106873541193
 H    1.535209032673    0.538365415467    1.230126458807
 H   -1.212790967327   -0.401634584533   -1.924873541193
 H   -0.365790967327    0.876365415467    2.767126458807
 H   -3.086790967327   -0.039634584533   -0.394873541193
 H   -2.674790967327    0.560365415467    1.967126458807
 H    3.418989032673   -1.044562584533   -1.678093541193
 H    2.482469032673   -1.866751584533   -0.419093541193
