16
0 1 
 C   -2.052013559470   -2.086000848440   -0.202629486814
 C   -0.346013559470    1.325999151560   -0.208629486814
 C   -1.315013559470    0.322999151560   -0.337629486814
 C    0.957986440530    0.972999151560    0.141370513186
 C   -0.991013559470   -1.024000848440   -0.119629486814
 C    1.302986440530   -0.365000848440    0.330370513186
 C    0.328986440530   -1.367000848440    0.175370513186
 O    1.925986440530    1.936999151560    0.216370513186
 H   -0.605013559470    2.360999151560   -0.386629486814
 H   -2.330013559470    0.599999151560   -0.581629486814
 H    1.580986440530    2.811999151560    0.009370513186
 H    2.321986440530   -0.625000848440    0.577370513186
 H   -1.624013559470   -2.995000848440   -0.627629486814
 H   -2.830013559470   -1.742000848440   -0.886629486814
 H    0.597986440530   -2.405000848440    0.325370513186
 H   -2.506541559470   -2.314345848440    0.772697513186
