10
-1 1 
 C    0.977424063222    0.341324974124    0.304840107474
 C    1.406424063222    0.987324974124   -1.005159892526
 C   -0.414575936778   -0.280675025876    0.248840107474
 O   -0.992575936778   -0.442675025876   -0.850159892526
 O   -0.937575936778   -0.599675025876    1.338840107474
 H    1.671424063222   -0.452675025876    0.546840107474
 H    1.025424063222    1.089324974124    1.099840107474
 H    0.833424063222    1.904324974124   -1.140159892526
 H    1.174424063222    0.307324974124   -1.818159892526
 H    2.480428063222    1.216493974124   -1.068378892526
