11
0 1 
 C    0.458068115070    0.259053672725    0.372219156428
 C    0.468068115070   -1.078946327275   -0.338780843572
 C   -0.884931884930    0.841053672725   -0.005780843572
 H    1.282068115070    0.893053672725    0.044219156428
 H    0.491068115070    0.116053672725    1.451219156428
 H    0.753068115070   -0.933946327275   -1.381780843572
 H    1.155068115070   -1.766946327275    0.152219156428
 H   -0.789931884930    1.394053672725   -0.937780843572
 H   -1.268931884930    1.495053672725    0.779219156428
 H   -0.577187884930   -1.416536327275   -0.279871843572
 H   -1.535833884930   -0.032746327275   -0.156755843572
