14
0 1 
 C    0.346062142055   -0.154494570000    0.051932078331
 C    0.089062142055    0.881505430000    1.148932078331
 C   -0.740937857945   -1.229494570000    0.127932078331
 C    0.359062142055    0.484505430000   -1.324067921669
 H    1.309062142055   -0.629494570000    0.229932078331
 H   -0.125937857945    0.365505430000    2.084932078331
 H   -0.800937857945    1.437505430000    0.866932078331
 H   -1.717937857945   -0.782494570000   -0.046067921669
 H   -0.561937857945   -1.984494570000   -0.635067921669
 H   -0.725937857945   -1.704494570000    1.106932078331
 H    1.182062142055    1.189505430000   -1.397067921669
 H    0.490062142055   -0.282494570000   -2.086067921669
 H   -0.582937857945    1.001505430000   -1.504067921669
 H    0.900419142055    1.603515430000    1.323312078331
