13
1 1 
 C   -1.574031710557   -0.929620439994   -0.800282517164
 C    0.369968289443    0.224379560006    0.214717482836
 N    0.897968289443    1.343379560006    0.673717482836
 N   -0.894031710557    0.211379560006   -0.191282517164
 N    1.138968289443   -0.846620439994    0.118717482836
 H    0.358968289443    2.192379560006    0.695717482836
 H    1.848968289443    1.362379560006    1.054717482836
 H   -1.409031710557    1.078379560006   -0.134282517164
 H    0.831968289443   -1.650620439994   -0.425282517164
 H    2.110968289443   -0.772620439994    0.365717482836
 H   -0.883031710557   -1.519620439994   -1.401282517164
 H   -2.343031710557   -0.554620439994   -1.480282517164
 H   -2.059121710557   -1.577601439994   -0.055422517164
