8
1 1 
 C    0.383753110664    0.104820014965   -0.685565018801
 N   -0.345246889336   -0.095179985035    0.604434981199
 H   -1.241246889336   -0.567179985035    0.495434981199
 H    0.218753110664   -0.629179985035    1.256434981199
 H   -0.510246889336    0.811820014965    1.057434981199
 H    0.822753110664   -0.839179985035   -1.025565018801
 H    1.206753110664    0.811820014965   -0.534565018801
 H   -0.269066889336    0.486290014965   -1.484501018801
