12
0 1 
 C   -0.122097220212   -0.732695644583    2.083519193707
 C   -0.610097220212    0.699304355417   -1.206480806293
 C   -0.001097220212   -0.277695644583    0.656519193707
 C    1.054902779788   -0.312695644583   -0.205480806293
 N   -1.030097220212    0.348304355417    0.001519193707
 N    0.642902779788    0.293304355417   -1.369480806293
 H   -1.205097220212    1.209304355417   -1.953480806293
 H    1.198902779788    0.442304355417   -2.204480806293
 H    2.052902779788   -0.658695644583    0.003519193707
 H   -1.081097220212   -1.224695644583    2.232519193707
 H   -0.101097220212    0.154304355417    2.718519193707
 H    0.685932779788   -1.409985644583    2.397159193707
