10
-1 1 
 C    0.589310855706   -0.066968064939   -0.903167645512
 C    0.525310855706    1.410031935061   -1.296167645512
 C   -0.164689144294   -0.376968064939    0.380832354488
 O   -0.843689144294    0.529031935061    0.923832354488
 O   -0.075689144294   -1.532968064939    0.857832354488
 H    0.162310855706   -0.642968064939   -1.710167645512
 H    1.645310855706   -0.266968064939   -0.757167645512
 H    0.708310855706    2.040031935061   -0.424167645512
 H   -0.484689144294    1.614031935061   -1.655167645512
 H    1.249272855706    1.685929935061   -2.077038345512
