11
0 1 
 C    0.156492733995   -0.355801262767    0.436648203429
 C   -0.084507266005    1.142198737233    0.589648203429
 C   -0.055507266005   -0.809801262767   -1.002351796571
 H    1.169492733995   -0.604801262767    0.756648203429
 H   -0.543507266005   -0.885801262767    1.079648203429
 H    0.119492733995    1.410198737233    1.621648203429
 H   -1.137507266005    1.352198737233    0.395648203429
 H   -1.071507266005   -0.553801262767   -1.307351796571
 H    0.647492733995   -0.314801262767   -1.668351796571
 H    0.532373733995    1.772018737233   -0.068211796571
 H    0.087466733995   -1.896546262767   -1.094781796571
