14
0 1 
 C    0.043825066079    0.294697062234    0.225056020497
 C   -1.344174933921    0.370697062234   -0.468943979503
 C    0.145825066079   -0.960302937766    1.107056020497
 C    1.159825066079    0.331697062234   -0.831943979503
 H    0.146825066079    1.169697062234    0.867056020497
 H   -1.358174933921    1.249697062234   -1.096943979503
 H    0.219825066079   -1.865302937766    0.503056020497
 H    1.043825066079   -0.890302937766    1.719056020497
 H   -0.703174933921   -1.034302937766    1.783056020497
 H    1.096825066079   -0.565302937766   -1.440943979503
 H    1.016825066079    1.200697062234   -1.473943979503
 H   -2.166674933921    0.439554062234    0.258213020497
 H   -1.534094933921   -0.524519937766   -1.079285979503
 H    2.174885066079    0.382055062234   -0.411098979503
