8
0 1 
 C    0.057789587328    0.359061716682   -0.670933922901
 C   -0.059210412672   -0.358938283318    0.671066077099
 H    1.005789587328    0.893061716682   -0.730933922901
 H   -0.004210412672   -0.364938283318   -1.483933922901
 H   -0.760210412672    1.073061716682   -0.775933922901
 H   -1.018210412672   -0.874938283318    0.719066077099
 H    0.028579587328    0.353351716682    1.504696077099
 H    0.765179587328   -1.081068283318    0.765466077099
