16
0 1 
 C    2.670792285223   -0.042315244371    1.229113003331
 C    1.298792285223   -0.029315244371    0.587113003331
 C    0.160792285223   -0.225315244371    1.363113003331
 C    1.146792285223    0.210684755629   -0.780886996669
 C   -1.095207714777   -0.202315244371    0.784113003331
 C   -0.114207714777    0.233684755629   -1.382886996669
 C   -1.239207714777    0.035684755629   -0.590886996669
 O   -2.496207714777    0.035684755629   -1.136886996669
 H    3.421792285223    0.285684755629    0.508113003331
 H    2.902792285223   -1.068315244371    1.519113003331
 H    0.242792285223   -0.430315244371    2.421113003331
 H    2.023792285223    0.362684755629   -1.392886996669
 H   -1.969207714777   -0.370315244371    1.397113003331
 H   -0.222207714777    0.404684755629   -2.444886996669
 H   -3.176207714777   -0.129315244371   -0.472886996669
 H    2.714069285223    0.607554755629    2.115563003331
