8
0 1 
 C   -0.550005511391    0.389431313332   -0.367546851973
 C    0.553994488609   -0.382568686668    0.368453148027
 H   -0.751005511391   -0.083568686668   -1.328546851973
 H   -1.476005511391    0.379431313332    0.208453148027
 H   -0.246005511391    1.423431313332   -0.536546851973
 H    0.131994488609   -1.340568686668    0.676453148027
 H    0.895872488609    0.146630313332    1.270153148027
 H    1.397653488609   -0.607067686668   -0.300756851973
