8
0 1 
 C   -0.281717243681    0.278413446176    0.661674859459
 C    0.282282756319   -0.275586553824   -0.661325140541
 H   -1.339717243681    0.032413446176    0.752674859459
 H    0.254282756319   -0.153586553824    1.506674859459
 H   -0.163717243681    1.362413446176    0.685674859459
 H    1.362282756319   -0.117586553824   -0.684325140541
 H   -0.203547243681    0.197513446176   -1.527433140541
 H    0.083682756319   -1.354826553824   -0.737430340541
