8
0 1 
 C   -0.547309254242    0.526304306377    0.064246939556
 C    0.546690745758   -0.528695693623   -0.062753060444
 H   -0.576309254242    0.934304306377    1.075246939556
 H   -0.346309254242    1.348304306377   -0.624753060444
 H   -1.513309254242    0.086304306377   -0.187753060444
 H    1.472690745758   -0.129695693623    0.349246939556
 H    0.257670745758   -1.433760693623    0.491616939556
 H    0.712930745758   -0.776982693623   -1.121392060444
