8
0 1 
 C    0.102287591130   -0.646515870958    0.389007591911
 C   -0.106712408870    0.645484129042   -0.386992408089
 H   -0.841712408870   -0.967515870958    0.828007591911
 H    0.465287591130   -1.418515870958   -0.288992408089
 H    0.836287591130   -0.484515870958    1.179007591911
 H    0.846287591130    0.941484129042   -0.821992408089
 H   -0.434962408870    1.446204129042    0.292047591911
 H   -0.818502408870    0.495144129042   -1.212072408089
