16
1 1 
 C   -0.277533153850    1.496497661885   -0.523519725725
 C   -1.770533153850    1.329497661885   -0.823519725725
 C    0.504466846150   -0.677502338115    0.339480274275
 N    0.195466846150    0.588497661885    0.522480274275
 N    0.898466846150   -1.407502338115    1.361480274275
 N    0.441466846150   -1.202502338115   -0.870519725725
 H    0.297466846150    1.364497661885   -1.441519725725
 H   -0.098533153850    2.523497661885   -0.198519725725
 H   -1.926533153850    0.361497661885   -1.298519725725
 H   -2.082533153850    2.094497661885   -1.533519725725
 H    0.282466846150    0.944497661885    1.469480274275
 H    0.961466846150   -0.973502338115    2.270480274275
 H    1.160466846150   -2.371502338115    1.235480274275
 H    0.152466846150   -0.638502338115   -1.649519725725
 H    0.695466846150   -2.166502338115   -1.018519725725
 H   -2.396220153850    1.367309661885    0.080410274275
