6
0 1 
 C    0.239896233728    0.589312218618    0.357519868473
 O   -0.177103766272   -0.569687781382   -0.349480131527
 H   -1.164103766272   -0.590687781382   -0.373480131527
 H    1.135896233728    0.320312218618    0.919519868473
 H    0.510506233728    1.396862218618   -0.338640131527
 H   -0.527936766272    0.898032218618    1.082175868473
