15
0 1 
 C    2.407397919718   -0.173139132961   -0.436795124696
 C    0.007397919718   -0.242139132961   -1.202795124696
 C    0.929397919718   -0.058139132961   -0.170795124696
 C   -1.365602080282   -0.150139132961   -0.954795124696
 C   -1.824602080282    0.129860867039    0.332204875304
 C    0.457397919718    0.216860867039    1.117204875304
 C   -0.911602080282    0.313860867039    1.369204875304
 H    0.352397919718   -0.461139132961   -2.201795124696
 H   -2.072602080282   -0.298139132961   -1.759795124696
 H    2.619397919718    0.015860867039   -1.485795124696
 H    2.691397919718   -1.208139132961   -0.237795124696
 H   -2.886602080282    0.203860867039    0.526204875304
 H    1.123397919718    0.319860867039    1.958204875304
 H   -1.277602080282    0.508860867039    2.365204875304
 H    3.024817919718    0.478110867039    0.199334875304
