11
0 1 
 C    0.332066665623   -0.377204888499   -0.312110843040
 C    0.636066665623    1.092795111501   -0.144110843040
 C   -0.934933334377   -0.750204888499    0.431889156960
 H    0.184066665623   -0.601204888499   -1.369110843040
 H    1.163066665623   -0.975204888499    0.060889156960
 H    0.633066665623    1.332795111501    0.921889156960
 H   -0.161933334377    1.668795111501   -0.618110843040
 H   -0.800933334377   -0.569204888499    1.500889156960
 H   -1.725933334377   -0.074204888499    0.100889156960
 H    1.604186665623    1.406135111501   -0.561900843040
 H   -1.290893334377   -1.775754888499    0.254289156960
