19
0 1 
 C   -2.398214395716   -1.400372947458    1.076805126850
 C   -1.159214395716   -1.129372947458    0.289805126850
 C   -0.548214395716   -1.975372947458   -0.575194873150
 C   -0.344214395716    0.057627052542    0.295805126850
 C    0.733785604284   -0.153372947458   -0.601194873150
 C   -0.421214395716    1.282627052542    0.962805126850
 C    1.695785604284    0.803627052542   -0.846194873150
 C    0.519785604284    2.246627052542    0.695805126850
 C    1.567785604284    2.018627052542   -0.199194873150
 N    0.576785604284   -1.409372947458   -1.102194873150
 H   -2.239214395716   -1.048372947458    2.083805126850
 H   -2.530214395716   -2.482372947458    1.142805126850
 H   -0.910214395716   -2.964372947458   -0.828194873150
 H    1.124785604284   -1.847372947458   -1.848194873150
 H   -1.200214395716    1.465627052542    1.684805126850
 H    2.507785604284    0.610627052542   -1.532194873150
 H    0.469785604284    3.180627052542    1.227805126850
 H    2.301785604284    2.794627052542   -0.371194873150
 H   -3.324167395716   -0.971306947458    0.666305126850
