7
-1 1 
 C   -0.029896163602   -0.162906844600    1.436894715021
 C    0.011103836398    0.013093155400   -0.079105284979
 O   -1.041896163602    0.360093155400   -0.653105284979
 O    1.069103836398   -0.208906844600   -0.709105284979
 H   -0.675896163602   -1.012906844600    1.661894715021
 H   -0.482896163602    0.724093155400    1.882894715021
 H    0.950743836398   -0.326816844600    1.907514715021
