12
0 1 
 C   -1.660714078229    0.202225854739   -1.443994335332
 C    0.703285921771   -0.541774145261   -0.677994335332
 C   -0.497714078229    0.070225854739   -0.506994335332
 C    0.611285921771    0.217225854739    1.388005664668
 N    1.377285921771   -0.436774145261    0.520005664668
 N   -0.532714078229    0.539225854739    0.791005664668
 H    1.045285921771   -1.040774145261   -1.575994335332
 H    2.298285921771   -0.812774145261    0.721005664668
 H   -2.543714078229    0.469225854739   -0.868994335332
 H   -1.832714078229   -0.788774145261   -1.867994335332
 H    0.872285921771    0.445225854739    2.415005664668
 H   -1.526554078229    0.924675854739   -2.262574335332
