8
0 1 
 C    0.521071427464    0.219567128384    0.509936454829
 C   -0.517928572536   -0.217432871616   -0.513063545171
 H    0.335071427464    1.245567128384    0.817936454829
 H    0.459071427464   -0.423432871616    1.387936454829
 H    1.522071427464    0.146567128384    0.084936454829
 H   -1.502928572536   -0.111432871616   -0.064063545171
 H   -0.467628572536    0.396899128384   -1.424143545171
 H   -0.383078572536   -1.279579871616   -0.765368545171
