8
0 1 
 C    0.024177541831   -0.356559368764   -0.674845405485
 C   -0.022822458169    0.356440631236    0.681154594515
 H    0.208177541831   -1.423559368764   -0.540845405485
 H   -0.907822458169   -0.237559368764   -1.217845405485
 H    0.797177541831    0.067440631236   -1.314845405485
 H   -0.094822458169    1.428440631236    0.506154594515
 H    0.891677541831    0.146330631236    1.255214594515
 H   -0.910522458169    0.020320631236    1.237044594515
