9
0 1 
 C   -0.526957509932   -0.188518504259   -0.025943871922
 C   -0.082957509932    0.953481495741    0.880056128078
 O    0.571042490068   -0.659518504259   -0.765943871922
 H   -0.932957509932   -0.992518504259    0.585056128078
 H   -1.303957509932    0.157481495741   -0.708943871922
 H    0.691042490068    0.585481495741    1.555056128078
 H    0.333042490068   -1.521518504259   -1.155943871922
 H   -0.924927509932    1.371085495741    1.451636128078
 H    0.337052490068    1.758742495741    0.259456128078
