8
0 1 
 C   -0.169628268175    0.257002905697   -0.695687984784
 C    0.174371731825   -0.264997094303    0.692312015216
 H   -0.016628268175   -0.527997094303   -1.435687984784
 H   -1.215628268175    0.568002905697   -0.728687984784
 H    0.458371731825    1.117002905697   -0.934687984784
 H   -0.016628268175    0.551002905697    1.391312015216
 H    1.238891731825   -0.530561094303    0.771529015216
 H   -0.504858268175   -1.082265094303    0.976420015216
