14
0 1 
 C   -0.126415755698    0.297272148639    0.185182027724
 C    1.023584244302    0.752272148639   -0.721817972276
 C   -1.266415755698   -0.288727851361   -0.644817972276
 C    0.356584244302   -0.717727851361    1.204182027724
 H   -0.510415755698    1.163272148639    0.724182027724
 H    1.357584244302   -0.119727851361   -1.278817972276
 H   -0.895415755698   -1.110727851361   -1.259817972276
 H   -2.046415755698   -0.664727851361    0.019182027724
 H   -1.713415755698    0.470272148639   -1.284817972276
 H    1.008584244302   -0.240727851361    1.934182027724
 H   -0.488415755698   -1.148727851361    1.741182027724
 H    0.892584244302   -1.525727851361    0.705182027724
 H    1.859485244302    1.151692148639   -0.128747972276
 H    0.686617244302    1.512082148639   -1.442327972276
