16
1 1 
 C   -0.524392013743    1.295283228511    0.993737406510
 C   -1.384392013743    0.099283228511    1.459737406510
 C    0.476607986257   -0.306716771489   -0.586262593490
 N    0.473607986257    0.879283228511    0.001737406510
 N   -0.491392013743   -1.183716771489   -0.387262593490
 N    1.447607986257   -0.636716771489   -1.409262593490
 H   -1.167392013743    2.072283228511    0.579737406510
 H    0.009607986257    1.703283228511    1.853737406510
 H   -0.758392013743   -0.762716771489    1.709737406510
 H   -2.273392013743   -0.049716771489    0.839737406510
 H    1.174607986257    1.553283228511   -0.273262593490
 H   -1.427392013743   -0.825716771489   -0.324262593490
 H   -0.400392013743   -2.099716771489   -0.803262593490
 H    2.210607986257   -0.004716771489   -1.591262593490
 H    1.498607986257   -1.561716771489   -1.805262593490
 H   -1.680272013743    0.099283228511    2.519197406510
