8
0 1 
 C    0.501562892070    0.352637291821    0.448449155632
 C   -0.499437107930   -0.351362708179   -0.453550844368
 H    0.007562892070    1.177637291821    0.961449155632
 H    0.886562892070   -0.350362708179    1.187449155632
 H    1.325562892070    0.737637291821   -0.150550844368
 H   -1.309437107930   -0.689362708179    0.192449155632
 H   -0.906665907930    0.337687291821   -1.208120844368
 H   -0.028897007930   -1.228412708179   -0.921930844368
