7
-1 1 
 C   -1.326119832534   -0.010953605180   -0.565648690561
 C    0.069880167466   -0.005953605180    0.036351309439
 O    0.370880167466    0.891046394820    0.858351309439
 O    0.887880167466   -0.877953605180   -0.322648690561
 H   -1.558119832534   -0.991953605180   -0.978648690561
 H   -1.354119832534    0.717046394820   -1.377648690561
 H   -2.107369832534    0.268426394820    0.156561309439
