8
0 1 
 C    0.107784752516   -0.752779950310    0.051040266313
 C   -0.104215247484    0.750220049690   -0.053959733687
 H    0.817784752516   -0.970779950310    0.849040266313
 H   -0.837215247484   -1.242779950310    0.290040266313
 H    0.481784752516   -1.137779950310   -0.896959733687
 H   -0.450215247484    1.098220049690    0.920040266313
 H    0.818234752516    1.283490049690   -0.327303733687
 H   -0.872875247484    1.000110049690   -0.800095733687
