11
0 1 
 C    0.546872097121   -0.158868354584   -0.255899740310
 C   -0.809127902879   -0.882868354584   -0.439899740310
 C    0.302872097121    1.028131645416    0.675100259690
 H    0.875872097121    0.222131645416   -1.221899740310
 H    1.301872097121   -0.834868354584    0.147100259690
 H   -0.928127902879   -1.202868354584   -1.474899740310
 H   -0.878127902879   -1.735868354584    0.236100259690
 H    0.923872097121    1.885131645416    0.407100259690
 H    0.542872097121    0.701131645416    1.684100259690
 H   -1.548048902879   -0.120018354584   -0.153459740310
 H   -0.773794902879    1.247221645416    0.622320259690
