9
0 1 
 C    0.474195378309    0.813766769278   -1.058768989575
 C   -0.002804621691    0.002766769278    0.078231010425
 O    0.635195378309    0.014766769278    1.142231010425
 N   -1.050804621691   -0.781233230722   -0.142768989575
 H   -0.325804621691    0.966766769278   -1.783768989575
 H    1.253195378309    0.244766769278   -1.566768989575
 H   -1.389804621691   -1.303233230722    0.655231010425
 H   -1.528804621691   -0.790233230722   -1.026768989575
 H    0.897685378309    1.779976769278   -0.747178989575
