15
0 1 
 C    0.053333989027   -1.785588457550    0.060553878299
 C   -0.865666010973   -2.329588457550    1.177553878299
 C    0.155333989027   -0.299588457550   -0.051446121701
 C    1.241333989027    0.530411542450    0.017553878299
 C   -0.483666010973    1.745411542450   -0.579446121701
 N   -0.899666010973    0.478411542450   -0.447446121701
 N    0.812333989027    1.814411542450   -0.281446121701
 H    1.052333989027   -2.205588457550    0.181553878299
 H   -0.337666010973   -2.142588457550   -0.889446121701
 H   -1.026666010973   -3.388588457550    0.980553878299
 H    2.255333989027    0.223411542450    0.239553878299
 H   -1.100666010973    2.578411542450   -0.884446121701
 H    1.389333989027    2.646411542450   -0.340446121701
 H   -1.846126010973   -1.835218457550    1.243118878299
 H   -0.371116010973   -2.265518457550    2.158019878299
