15
0 1 
 C    1.228894436296   -1.463567978571    1.529536180484
 C   -0.926105563704    1.091432021429   -1.139463819516
 C    0.016894436296    0.216432021429   -1.663463819516
 C   -1.189105563704    1.180432021429    0.219536180484
 C    0.718894436296   -0.622567978571   -0.798463819516
 C   -0.470105563704    0.345432021429    1.077536180484
 C    0.473894436296   -0.556567978571    0.579536180484
 H   -1.464105563704    1.729432021429   -1.820463819516
 H    0.183894436296    0.162432021429   -2.729463819516
 H   -1.924105563704    1.875432021429    0.602536180484
 H    1.422894436296   -1.334567978571   -1.200463819516
 H   -0.655105563704    0.398432021429    2.141536180484
 H    1.132894436296   -2.494567978571    1.185536180484
 H    0.757894436296   -1.406567978571    2.512536180484
 H    2.292934436296   -1.204515978571    1.633016180484
