15
0 1 
 C   -0.883193854509   -2.283407303625    0.053297415883
 C    0.823806145491    0.943592696375    1.090297415883
 C    0.660806145491    1.730592696375   -0.035702584117
 C    0.322806145491   -0.351407303625    1.118297415883
 C   -0.345193854509   -0.875407303625    0.023297415883
 C    0.011806145491    1.213592696375   -1.142702584117
 C   -0.488193854509   -0.084407303625   -1.114702584117
 H    1.340806145491    1.340592696375    1.951297415883
 H    1.025806145491    2.744592696375   -0.044702584117
 H    0.478806145491   -0.957407303625    1.999297415883
 H   -0.118193854509    1.819592696375   -2.025702584117
 H   -0.453193854509   -2.802407303625    0.907297415883
 H   -0.558193854509   -2.807407303625   -0.843702584117
 H   -0.961193854509   -0.479407303625   -2.001702584117
 H   -1.976795854509   -2.348622303625    0.152197415883
