16
0 1 
 C    1.401594427533    2.556873994247    0.282952656385
 C    1.195594427533    0.084873994247    0.697952656385
 C    0.672594427533    1.245873994247    0.137952656385
 C    0.532594427533   -1.130126005753    0.564952656385
 C   -0.664405572467   -1.190126005753   -0.138047343615
 C   -0.522405572467    1.171873994247   -0.572047343615
 C   -1.192405572467   -0.039126005753   -0.710047343615
 O   -1.313405572467   -2.380126005753   -0.271047343615
 H    2.126594427533    0.127873994247    1.252952656385
 H    0.943594427533   -2.025126005753    1.009952656385
 H    1.902594427533    2.564873994247    1.248952656385
 H    0.682594427533    3.377873994247    0.277952656385
 H   -0.947405572467    2.067873994247   -1.011047343615
 H   -0.833405572467   -3.109126005753    0.138952656385
 H   -2.128405572467   -0.090126005753   -1.250047343615
 H    2.153204427533    2.710366994247   -0.505407343615
