8
0 1 
 C    0.331200489147   -0.686606556155   -0.085205610467
 C   -0.334799510853    0.687393443845    0.084794389533
 H   -0.337799510853   -1.371606556155   -0.606205610467
 H    1.259200489147   -0.585606556155   -0.647205610467
 H    0.572200489147   -1.109606556155    0.889794389533
 H    0.237200489147    1.267393443845    0.810794389533
 H   -1.370879510853    0.569903443845    0.435134389533
 H   -0.317069510853    1.220153443845   -0.877415610467
