11
0 1 
 C   -0.074173473429   -0.556430194458   -0.036824923487
 C   -1.180173473429    0.450569805542   -0.368824923487
 C    1.251826526571    0.073569805542    0.391175076513
 H   -0.437173473429   -1.159430194458    0.795175076513
 H    0.081826526571   -1.239430194458   -0.868824923487
 H   -1.348173473429    1.095569805542    0.497175076513
 H    1.049826526571    0.940569805542    1.015175076513
 H    1.788826526571   -0.648430194458    1.004175076513
 H   -2.114027473429   -0.075660194458   -0.615800923487
 H   -0.888271473429    1.102289805542   -1.205514923487
 H    1.897176526571    0.368999805542   -0.449210923487
