9
0 1 
 C    0.076893643465    1.325608282360   -0.598023751962
 C   -0.046106356535   -0.042391717640    0.049976248038
 O   -0.989106356535   -0.306391717640    0.789976248038
 N    0.899893643465   -0.924391717640   -0.225023751962
 H   -0.806106356535    1.437608282360   -1.221023751962
 H    0.949893643465    1.369608282360   -1.250023751962
 H    0.829893643465   -1.831391717640    0.208976248038
 H    1.713893643465   -0.677391717640   -0.774023751962
 H    0.140244643465    2.129008282360    0.150665248038
