8
0 1 
 C   -0.147796275070   -0.287383471411    0.691597728948
 C    0.152203724930    0.282616528589   -0.693402271052
 H    0.496203724930    0.160616528589    1.442597728948
 H   -1.176796275070   -0.050383471411    0.964597728948
 H   -0.019796275070   -1.369383471411    0.691597728948
 H    0.108203724930    1.369616528589   -0.621402271052
 H    1.152906624930   -0.012723471411   -1.041782271052
 H   -0.613200275070   -0.040983471411   -1.414122271052
