16
0 1 
 C    2.385503540635    1.584787288772   -0.667543052570
 C    1.191503540635    0.742787288772   -0.292543052570
 C    0.717503540635   -0.252212711228   -1.151543052570
 C    0.455503540635    1.007787288772    0.876456947430
 C   -0.407496459365   -0.994212711228   -0.848543052570
 C   -0.696496459365    0.274787288772    1.167456947430
 C   -1.124496459365   -0.726212711228    0.312456947430
 O   -2.250496459365   -1.434212711228    0.595456947430
 H    3.180503540635    0.949787288772   -1.051543052570
 H    2.757503540635    2.080787288772    0.230456947430
 H    1.258503540635   -0.458212711228   -2.065543052570
 H    0.779503540635    1.785787288772    1.557456947430
 H   -0.734496459365   -1.777212711228   -1.519543052570
 H   -1.256496459365    0.473787288772    2.068456947430
 H   -2.420496459365   -2.127212711228   -0.052543052570
 H    2.129123540635    2.336922288772   -1.428173052570
