11
0 1 
 C    0.163680475991   -0.329807374301   -0.499073069943
 C    1.062680475991    0.525192625699    0.339926930057
 C   -1.208319524009   -0.225807374301    0.125926930057
 H    0.513680475991   -1.360807374301   -0.550073069943
 H    0.107680475991    0.101192625699   -1.496073069943
 H    1.493680475991   -0.068807374301    1.145926930057
 H    1.841680475991    0.959192625699   -0.289073069943
 H   -1.324319524009   -1.025807374301    0.858926930057
 H   -1.993319524009   -0.294807374301   -0.623073069943
 H    0.381140475991    1.286202625699    0.747796930057
 H   -1.235039524009    0.765872625699    0.601176930057
