15
0 1 
 C    0.118958961890   -1.882339263774    1.538785391568
 C    0.554958961890    0.238660736226   -1.543214608432
 C   -0.091041038110    1.411660736226   -1.187214608432
 C    0.607958961890   -0.817339263774   -0.649214608432
 C    0.050958961890   -0.705339263774    0.616785391568
 C   -0.659041038110    1.530660736226    0.071785391568
 C   -0.599041038110    0.472660736226    0.969785391568
 H    1.003958961890    0.142660736226   -2.522214608432
 H   -0.142041038110    2.234660736226   -1.887214608432
 H    1.094958961890   -1.732339263774   -0.953214608432
 H   -1.147041038110    2.453660736226    0.339785391568
 H    0.911958961890   -2.544339263774    1.186785391568
 H   -0.822041038110   -2.429339263774    1.452785391568
 H   -1.008041038110    0.570660736226    1.956785391568
 H    0.302216961890   -1.655962263774    2.599525391568
