8
0 1 
 C   -0.122465223029    0.248184350791   -0.708092390075
 C    0.121534776971   -0.246815649209    0.710907609925
 H   -0.290465223029    1.326184350791   -0.708092390075
 H    0.747534776971    0.025184350791   -1.328092390075
 H   -0.993465223029   -0.247815649209   -1.136092390075
 H    0.322534776971   -1.314815649209    0.669907609925
 H   -0.772805223029   -0.062326649209    1.324190609925
 H    0.997744776971    0.257292350791    1.144658609925
