8
0 1 
 C   -0.091271474823    0.016674930391   -0.755806816256
 C    0.092728525177   -0.020325069609    0.759193183744
 H   -1.142271474823    0.029674930391   -1.028806816256
 H    0.380728525177    0.911674930391   -1.158806816256
 H    0.363728525177   -0.864325069609   -1.208806816256
 H   -0.425271474823    0.837674930391    1.180193183744
 H   -0.349431474823   -0.949006069609    1.149123183744
 H    1.155168525177    0.077767930391    1.026783183744
