11
0 1 
 C   -0.497186819166    0.367843460022    0.084989924951
 C   -0.074186819166   -0.796156539978    0.962989924951
 C    0.536813180834    0.462843460022   -1.045010075049
 H   -0.582186819166    1.286843460022    0.661989924951
 H   -1.467186819166    0.128843460022   -0.338010075049
 H    0.026813180834   -0.474156539978    2.000989924951
 H   -0.803186819166   -1.602156539978    0.911989924951
 H    0.015813180834    0.579843460022   -1.998010075049
 H    0.896063180834   -1.140986539978    0.576069924951
 H    1.088593180834   -0.485456539978   -0.965860075049
 H    1.236783180834    1.296078460022   -0.884520075049
