8
0 1 
 C    0.145287893941    0.017421528784   -0.756123236924
 C   -0.143712106059   -0.020578471216    0.760876763076
 H   -0.772712106059    0.198421528784   -1.314123236924
 H    0.857287893941    0.808421528784   -0.987123236924
 H    0.569287893941   -0.935578471216   -1.073123236924
 H    0.787287893941   -0.143578471216    1.309876763076
 H   -0.849822106059   -0.832168471216    0.990506763076
 H   -0.610092106059    0.942071528784    1.017386763076
