9
0 1 
 C    0.373049251178   -1.379910970312   -0.328691298797
 C   -0.015950748822    0.048089029688    0.063308701203
 O   -0.053950748822    0.398089029688    1.250308701203
 N   -0.278950748822    0.890089029688   -0.924691298797
 H    0.289049251178   -1.499910970312   -1.406691298797
 H   -0.325950748822   -2.063910970312    0.149308701203
 H   -0.592950748822    1.819089029688   -0.696691298797
 H   -0.280950748822    0.552089029688   -1.882691298797
 H    1.390969251178   -1.634750970312    0.001308701203
