11
0 1 
 C    0.468069531893    0.134969149456   -0.222350694041
 C   -0.597930468107   -0.666030850544   -1.014350694041
 C    0.159069531893    0.537969149456    1.232649305959
 H    1.351069531893   -0.476030850544   -0.215350694041
 H    0.692069531893    1.053969149456   -0.766350694041
 H   -1.566930468107   -0.164030850544   -0.919350694041
 H   -0.129930468107   -0.359030850544    1.738649305959
 H    1.030069531893    1.038969149456    1.644649305959
 H   -0.665989468107   -1.710100850544   -0.674804694041
 H   -0.360794468107   -0.687520850544   -2.088270694041
 H   -0.697345468107    1.221530149456    1.329076305959
