8
0 1 
 C   -0.227506518577    0.403438847781    0.608214755851
 C    0.225493481423   -0.404561152219   -0.609785244149
 H   -0.892506518577   -0.192561152219    1.234214755851
 H    0.634493481423    0.700438847781    1.202214755851
 H   -0.759506518577    1.297438847781    0.281214755851
 H    0.824493481423    0.235438847781   -1.259785244149
 H   -0.640104518577   -0.788851152219   -1.169303244149
 H    0.857099481423   -1.238541152219   -0.269856244149
