19
0 1 
 C   -0.446896330678   -1.361218821076   -2.099180402379
 C   -1.011896330678   -0.477218821076   -3.225180402379
 C   -0.145896330678   -0.626218821076   -0.801180402379
 C   -1.148896330678   -0.403218821076    0.146819597621
 C    1.147103669322   -0.172218821076   -0.523180402379
 C   -0.868896330678    0.263781178924    1.345819597621
 C    1.433103669322    0.497781178924    0.671819597621
 C    0.423103669322    0.714781178924    1.607819597621
 O    0.697103669322    1.369781178924    2.774819597621
 H   -1.164896330678   -2.155218821076   -1.888180402379
 H    0.468103669322   -1.841218821076   -2.447180402379
 H   -1.967896330678   -0.070218821076   -2.893180402379
 H   -2.152896330678   -0.756218821076   -0.044180402379
 H    1.934103669322   -0.326218821076   -1.247180402379
 H   -1.640896330678    0.410781178924    2.081819597621
 H    2.433103669322    0.851781178924    0.874819597621
 H   -0.082896330678    1.465781178924    3.332819597621
 H   -1.175340330678   -1.071763821076   -4.136120402379
 H   -0.341671330678    0.372403178924   -3.422520402379
