12
0 1 
 C   -0.577291975050    0.654893458901    2.048164948557
 C    1.057708024950   -0.323106541099   -1.067835051443
 C   -0.224291975050    0.162893458901    0.661164948557
 C   -1.034291975050   -0.120106541099   -0.403835051443
 N    1.077708024950    0.020893458901    0.215164948557
 N   -0.212291975050   -0.411106541099   -1.466835051443
 H    1.968708024950   -0.489106541099   -1.630835051443
 H   -0.528291975050   -0.657106541099   -2.383835051443
 H   -2.112291975050   -0.133106541099   -0.491835051443
 H    0.036708024950    0.087893458901    2.751164948557
 H   -1.621291975050    0.409893458901    2.221164948557
 H   -0.502421975050    1.743303458901    2.188714948557
