8
1 1 
 C    0.406840376092   -0.578014380203   -0.383851058214
 N   -0.357159623908    0.508985619797    0.336148941786
 H   -0.333159623908    0.395985619797    1.352148941786
 H    0.052840376092    1.415985619797    0.147148941786
 H   -1.324159623908    0.548985619797    0.040148941786
 H    1.425840376092   -0.652014380203    0.008148941786
 H    0.446840376092   -0.393014380203   -1.462851058214
 H   -0.149879623908   -1.505634380203   -0.184867058214
