8
0 1 
 C    0.040046410185    0.668908206993    0.340508869849
 C   -0.041953589815   -0.673091793007   -0.338491130151
 H   -0.371953589815    0.607908206993    1.348508869849
 H    1.081046410185    0.985908206993    0.401508869849
 H   -0.514953589815    1.413908206993   -0.229491130151
 H    0.394046410185   -0.576091793007   -1.331491130151
 H   -1.101103589815   -0.955483793007   -0.430466030151
 H    0.535626410185   -1.426335793007    0.217405669849
