8
0 1 
 C   -0.756702608019    0.036753032648   -0.104113845255
 C    0.759297391981   -0.037246967352    0.108886154745
 H   -1.274702608019   -0.380246967352    0.759886154745
 H   -1.063702608019    1.074753032648   -0.241113845255
 H   -1.027702608019   -0.544246967352   -0.987113845255
 H    1.231297391981    0.426753032648   -0.749113845255
 H    1.056077391981   -1.095614967352    0.151076154745
 H    1.047837391981    0.524484032648    1.009556154745
