9
0 1 
 C   -0.122086394627   -0.525822514326   -0.150212636864
 C    0.121913605373   -0.098822514326    1.295787363136
 O    0.014913605373    0.592177485674   -1.008212636864
 H    0.596913605373   -1.297822514326   -0.424212636864
 H   -1.128086394627   -0.939822514326   -0.244212636864
 H    0.024913605373   -0.977822514326    1.931787363136
 H   -0.253086394627    0.332177485674   -1.901212636864
 H   -0.626601394627    0.647437485674    1.600457363136
 H    1.151314605373    0.275107485674    1.398297363136
