8
0 1 
 C    0.739373335143   -0.178313950076    0.070944975350
 C   -0.741626664857    0.177686049924   -0.068055024650
 H    0.852373335143   -1.260313950076    0.072944975350
 H    1.297373335143    0.218686049924   -0.773055024650
 H    1.170373335143    0.221686049924    0.980944975350
 H   -0.838626664857    1.263686049924   -0.059055024650
 H   -1.307266664857   -0.256213950076    0.769664975350
 H   -1.147396664857   -0.180053950076   -1.025855024650
