12
0 1 
 C    0.269703888226    0.159351408638   -0.204681829568
 C   -0.430296111774    1.243351408638    0.623318170432
 C    0.948703888226   -0.869648591362    0.703318170432
 O   -0.692296111774   -0.514648591362   -1.012681829568
 H    1.016703888226    0.618351408638   -0.852681829568
 H   -1.203296111774    0.761351408638    1.223318170432
 H    0.216703888226   -1.304648591362    1.386318170432
 H    1.376703888226   -1.664648591362    0.092318170432
 H    1.749703888226   -0.416648591362    1.285318170432
 H   -0.935296111774    0.108351408638   -1.717681829568
 H   -0.897666111774    2.002261408638   -0.021371829568
 H    0.279773888226    1.716491408638    1.317538170432
