16
0 1 
 C   -1.689098923251    1.768335702400   -1.669085165682
 C    0.535901076749   -1.159664297600   -0.550085165682
 C    0.783901076749   -0.837664297600    0.778914834318
 C   -0.273098923251   -0.323664297600   -1.336085165682
 C   -0.830098923251    0.851335702400   -0.810085165682
 C    0.246901076749    0.335335702400    1.316914834318
 C   -0.566098923251    1.163335702400    0.531914834318
 O    1.579901076749   -1.654664297600    1.520914834318
 H    0.981901076749   -2.050664297600   -0.964085165682
 H   -0.457098923251   -0.587664297600   -2.369085165682
 H    0.446901076749    0.592335702400    2.347914834318
 H    2.076901076749   -1.124664297600    2.183914834318
 H   -2.253098923251    2.438335702400   -1.017085165682
 H   -2.421098923251    1.155335702400   -2.197085165682
 H   -0.982098923251    2.063335702400    0.966914834318
 H   -1.133108923251    2.373635702400   -2.400166165682
