11
0 1 
 C   -0.263697981984   -0.388929616447   -0.419128535294
 C   -0.691697981984   -0.164929616447    1.010871464706
 C    0.929302018016    0.526070383553   -0.619128535294
 H   -1.063697981984   -0.145929616447   -1.120128535294
 H    0.049302018016   -1.425929616447   -0.546128535294
 H   -1.327697981984    0.719070383553    1.085871464706
 H   -1.219697981984   -1.052929616447    1.348871464706
 H    0.584302018016    1.476070383553   -1.032128535294
 H    1.650302018016    0.075070383553   -1.303128535294
 H    0.269612018016    0.017854383553    1.513339464706
 H    1.368272018016    0.667600383553    0.379507464706
