13
1 1 
 C    0.099892208175    1.948568463883   -0.388960620774
 C   -0.028107791825   -0.463431536117    0.087039379226
 N   -0.371107791825    0.591568463883   -0.623960620774
 N    0.852892208175   -0.398431536117    1.075039379226
 N   -0.560107791825   -1.647431536117   -0.193960620774
 H   -1.057107791825    0.452568463883   -1.369960620774
 H    0.233892208175    2.129568463883    0.680039379226
 H   -0.691107791825    2.624568463883   -0.719960620774
 H    1.241892208175    0.494568463883    1.361039379226
 H    1.051892208175   -1.215431536117    1.629039379226
 H   -1.213107791825   -1.717431536117   -0.982960620774
 H   -0.352107791825   -2.464431536117    0.354039379226
 H    1.019282208175    2.219228463883   -0.928840620774
