11
0 1 
 C    0.535206546441    0.170453758493   -0.051279159751
 C   -0.521793453559    0.962453758493    0.742720840249
 C    0.018206546441   -1.122546241507   -0.692279159751
 H    0.887206546441    0.807453758493   -0.861279159751
 H    1.383206546441   -0.059546241507    0.594720840249
 H   -1.416793453559    1.076453758493    0.129720840249
 H    0.803206546441   -1.533546241507   -1.331279159751
 H   -0.168793453559   -1.862546241507    0.085720840249
 H   -0.158954553559    1.963833758493    1.017670840249
 H   -0.814546753559    0.432023758493    1.660830840249
 H   -0.891021053559   -0.947496241507   -1.286134159751
