12
0 1 
 C   -0.870906261911   -0.649136075366    0.036311929809
 C   -1.383906261911   -0.440136075366   -1.385688070191
 C    0.383093738089    0.160863924634    0.324311929809
 O    0.610093738089    1.208863924634   -0.278688070191
 N    1.199093738089   -0.305136075366    1.257311929809
 H   -1.634906261911   -0.303136075366    0.734311929809
 H   -0.765906261911   -1.701136075366    0.197311929809
 H   -1.508906261911    0.633863924634   -1.537688070191
 H    1.973093738089    0.287863924634    1.528311929809
 H    0.883093738089   -1.044136075366    1.865311929809
 H   -2.349616261911   -0.952066075366   -1.509518070191
 H   -0.653876261911   -0.812736075366   -2.119328070191
