11
0 1 
 C   -0.012112452685    0.434999133395    0.363839963799
 C    1.267887547315   -0.373000866605    0.059839963799
 C   -1.253112452685   -0.038000866605   -0.394160036201
 H   -0.221112452685    0.396999133395    1.433839963799
 H    0.122887547315    1.475999133395    0.078839963799
 H    1.321887547315   -0.495000866605   -1.020160036201
 H   -1.496112452685   -1.065000866605   -0.125160036201
 H   -2.100112452685    0.598999133395   -0.141160036201
 H   -1.072112452685    0.023999133395   -1.467160036201
 H    2.173747547315    0.158094133395    0.387490963799
 H    1.239223547315   -1.379821866605    0.501980963799
