6
0 1 
 C   -0.309047920888   -0.290457049568    0.591938116994
 O    0.251952079112    0.308542950432   -0.572061883006
 H    1.132952079112   -0.100457049568   -0.717061883006
 H   -0.257047920888   -1.353457049568    0.657938116994
 H    0.198122079112    0.119322950432    1.477858116994
 H   -1.392907920888   -0.103787049568    0.612197116994
