6
0 1 
 C    0.491661766444    0.247492467377    0.489239839340
 O   -0.443338233556   -0.283507532623   -0.452760160660
 H   -1.007338233556    0.450492467377   -0.782760160660
 H    0.368661766444    1.324492467377    0.553239839340
 H    0.320921766444   -0.226157532623    1.467251839340
 H    1.499721766444    0.003792467377    0.122605839340
