11
0 1 
 C    0.013582252050    0.505892108708   -0.244989964135
 C   -0.349417747950   -0.778107891292   -0.991989964135
 C    0.339582252050    0.294892108708    1.224010035865
 H    0.875582252050    0.959892108708   -0.727989964135
 H   -0.809417747950    1.218892108708   -0.323989964135
 H   -1.122417747950   -1.316107891292   -0.440989964135
 H    1.119582252050   -0.458107891292    1.339010035865
 H    0.709582252050    1.238892108708    1.621010035865
 H    0.551312252050   -1.395427891292   -1.124649964135
 H   -0.801507747950   -0.519047891292   -1.960749964135
 H   -0.567327747950    0.001012108708    1.772780035865
