8
0 1 
 C   -0.008716131060    0.010287754964    0.761342705848
 C    0.010283868940   -0.003712245036   -0.764657294152
 H   -0.936716131060    0.434287754964    1.144342705848
 H    0.050283868940   -1.016712245036    1.123342705848
 H    0.849283868940    0.550287754964    1.151342705848
 H   -0.851716131060   -0.569712245036   -1.105657294152
 H   -0.056046131060    1.022637754964   -1.154797294152
 H    0.926243868940   -0.499082245036   -1.119107294152
