9
0 1 
 C   -0.906722488665   -0.416118104213   -1.067393336302
 C    0.045277511335    0.065881895787    0.020606663698
 O    0.507277511335    1.208881895787    0.012606663698
 N    0.343277511335   -0.802118104213    0.974606663698
 H    0.976277511335   -0.502118104213    1.712606663698
 H   -0.065722488665   -1.724118104213    0.982606663698
 H   -1.926722488665   -0.287118104213   -0.707393336302
 H   -0.749722488665   -1.480118104213   -1.245393336302
 H   -0.797512488665    0.122751895787   -2.020120336302
