11
0 1 
 C    0.036037846909    0.328832818443    0.459855574010
 C   -1.312962153091    0.016832818443   -0.223144425990
 C    1.281037846909   -0.330167181557   -0.210144425990
 H    0.153037846909    1.414832818443    0.448855574010
 H   -0.031962153091   -0.005167181557    1.495855574010
 H   -1.406962153091   -1.052167181557   -0.436144425990
 H    1.370037846909    0.004832818443   -1.244144425990
 H    2.187037846909   -0.050167181557    0.330855574010
 H    1.178037846909   -1.416167181557   -0.193144425990
 H   -2.131004153091    0.329932818443    0.442275574010
 H   -1.367202153091    0.589532818443   -1.160734425990
