8
0 1 
 C   -0.390166031290    0.659411187391    0.045534032372
 C    0.389833968710   -0.658588812609   -0.053465967628
 H   -1.056166031290    0.772411187391   -0.810465967628
 H   -0.990166031290    0.644411187391    0.953534032372
 H    0.289833968710    1.508411187391    0.111534032372
 H    1.128833968710   -0.657588812609    0.748534032372
 H    0.906773968710   -0.758109812609   -1.019315967628
 H   -0.275156031290   -1.519326812609    0.110624032372
