8
0 1 
 C   -0.281550083467   -0.628860573004    0.324822662305
 C    0.280449916533    0.628139426996   -0.329177337695
 H    0.519449916533   -1.340860573004    0.505822662305
 H   -0.729550083467   -0.374860573004    1.285822662305
 H   -1.038550083467   -1.083860573004   -0.316177337695
 H    1.095449916533    0.997139426996    0.293822662305
 H    0.661709916533    0.404839426996   -1.336538937695
 H   -0.495410083467    1.406189426996   -0.380901337695
