15
0 1 
 C   -1.809829727349    1.117732917984    1.213997477808
 C    1.312170272651   -0.928267082016    0.470997477808
 C    0.269170272651   -0.293267082016    1.158997477808
 C    1.383170272651   -0.847267082016   -0.920002522192
 C   -0.704829727349    0.426732917984    0.465997477808
 C    0.407170272651   -0.130267082016   -1.621002522192
 C   -0.633829727349    0.504732917984   -0.926002522192
 H    2.071170272651   -1.467267082016    1.017997477808
 H    0.228170272651   -0.357267082016    2.236997477808
 H    2.194170272651   -1.328267082016   -1.451002522192
 H    0.453170272651   -0.059267082016   -2.695002522192
 H   -2.032829727349    2.062732917984    0.713997477808
 H   -1.462829727349    1.351732917984    2.221997477808
 H   -1.377829727349    1.059732917984   -1.476002522192
 H   -2.730699727349    0.522340917984    1.300599977808
