11
0 1 
 C   -0.382366234908   -0.221589705228   -0.377161993950
 C    0.916633765092    0.418410294772   -0.794161993950
 C   -0.564366234908   -0.205589705228    1.144838006050
 H   -1.225366234908    0.271410294772   -0.858161993950
 H   -0.359366234908   -1.260589705228   -0.699161993950
 H    1.714633765092   -0.022589705228   -0.190161993950
 H    0.888633765092    1.485410294772   -0.572161993950
 H    0.319633765092   -0.644589705228    1.610838006050
 H   -0.694366234908    0.821410294772    1.492838006050
 H    1.171013765092    0.257260294772   -1.852141993950
 H   -1.456436234908   -0.803309705228    1.383478006050
