18
0 1 
 C    2.016580563795   -0.203587060817   -0.352025738907
 C    2.411580563795    0.970412939183   -1.255025738907
 C    0.547580563795   -0.209587060817    0.002974261093
 C    0.108580563795    0.455412939183    1.139974261093
 C   -0.387419436205   -0.831587060817   -0.833025738907
 C   -1.249419436205    0.504412939183    1.443974261093
 C   -1.759419436205   -0.747587060817   -0.538025738907
 C   -2.179419436205   -0.093587060817    0.611974261093
 H    2.271580563795   -1.145587060817   -0.841025738907
 H    2.601580563795   -0.128587060817    0.560974261093
 H    2.186580563795    1.892412939183   -0.719025738907
 H    0.818580563795    0.933412939183    1.798974261093
 H   -0.063419436205   -1.350587060817   -1.723025738907
 H   -1.581419436205    1.021412939183    2.333974261093
 H   -2.482419436205   -1.196587060817   -1.204025738907
 H   -3.233419436205   -0.040587060817    0.851974261093
 H    1.846870563795    0.916344939183   -2.197455738907
 H    3.485970563795    0.952202939183   -1.490295738907
