12
0 1 
 C   -0.934453741741    1.963924909689   -0.303322812013
 C   -0.081453741741   -1.518075090311    0.121677187988
 C   -0.266453741741    0.655924909689   -0.081322812013
 C    1.048546258259    0.367924909689    0.105677187987
 N   -0.955453741741   -0.540075090311   -0.059322812013
 N    1.137546258259   -0.992075090311    0.216677187987
 H   -0.387453741741   -2.554075090311    0.174677187988
 H    1.994546258259   -1.506075090311    0.353677187987
 H    1.919546258259    1.004924909689    0.166677187987
 H   -0.214453741741    2.742924909689   -0.075322812012
 H   -1.764453741741    2.015924909689    0.402677187987
 H   -1.293793741741    2.085144909689   -1.335882812013
