8
0 1 
 C    0.673183014870    0.321664812297    0.142934722155
 C   -0.670816985130   -0.323335187703   -0.144065277845
 H    0.929183014870    1.012664812297   -0.658065277845
 H    0.608183014870    0.883664812297    1.069934722155
 H    1.449183014870   -0.439335187703    0.231934722155
 H   -1.422816985130    0.454664812297   -0.269065277845
 H   -0.613216985130   -0.931005187703   -1.059171277845
 H   -0.978686985130   -0.960765187703    0.697893722155
