8
0 1 
 C   -0.112259170775   -0.296349414183    0.690615383361
 C    0.112740829225    0.299650585817   -0.690384616639
 H   -0.896259170775    0.224650585817    1.234615383361
 H   -0.408259170775   -1.336349414183    0.575615383361
 H    0.812740829225   -0.236349414183    1.265615383361
 H   -0.768259170775    0.096650585817   -1.299384616639
 H    0.266780829225    1.386520585817   -0.619784616639
 H    0.987520829225   -0.174429414183   -1.159424616639
