8
0 1 
 C    0.319337187775    0.228228898946    0.650068073297
 C   -0.325662812225   -0.231771101054   -0.646931926703
 H   -0.401662812225    0.168228898946    1.462068073297
 H    1.176337187775   -0.403771101054    0.881068073297
 H    0.659337187775    1.256228898946    0.545068073297
 H    0.411337187775   -0.077771101054   -1.433931926703
 H   -1.200555812225    0.403662898946   -0.848885926703
 H   -0.569474812225   -1.304402101054   -0.642727926703
