8
0 1 
 C   -0.457183931052    0.008890872629   -0.618047841921
 C    0.458816068948   -0.006109127371    0.615952158079
 H    0.142816068948   -0.012109127371   -1.529047841921
 H   -1.116183931052   -0.861109127371   -0.603047841921
 H   -1.073183931052    0.907890872629   -0.615047841921
 H   -0.162183931052    0.013890872629    1.513952158079
 H    1.143776068948    0.854598872629    0.618952158079
 H    1.045526068948   -0.936284127371    0.639192158079
