8
0 1 
 C    0.134512108545   -0.193232247367    0.711850907256
 C   -0.134487891455    0.197767752633   -0.712149092744
 H   -0.368487891455    0.483767752633    1.401850907256
 H   -0.238487891455   -1.203232247367    0.881850907256
 H    1.203512108545   -0.203232247367    0.904850907256
 H    0.501512108545   -0.397232247367   -1.368149092744
 H    0.089222108545    1.265227752633   -0.855292092744
 H   -1.187558891455    0.000697752633   -0.961561092744
