8
0 1 
 C   -0.270387561624    0.711154520750    0.019803239725
 C    0.277612438376   -0.711845479250   -0.015196760275
 H    0.438612438376    1.420154520750   -0.406196760275
 H   -1.174387561624    0.752154520750   -0.589196760275
 H   -0.526387561624    0.994154520750    1.039803239725
 H    0.491612438376   -0.926845479250   -1.039196760275
 H    1.173452438376   -0.807235479250    0.615976239725
 H   -0.488927561624   -1.424155479250    0.323962239725
