8
0 1 
 C    0.053074815174    0.136365229551   -0.735553012149
 C   -0.049925184826   -0.136634770449    0.738446987851
 H    1.099074815174    0.116365229551   -1.040553012149
 H   -0.489925184826   -0.626634770449   -1.293553012149
 H   -0.379925184826    1.112365229551   -0.960553012149
 H   -1.100925184826   -0.078634770449    1.002446987851
 H    0.529726815174    0.628738229551    1.275296987851
 H    0.304471815174   -1.148989770449    0.982456987851
