7
-1 1 
 C   -0.328005087405    1.346553950630   -0.431799329208
 C    0.025994912595   -0.075446049370    0.016200670792
 O   -0.853005087405   -0.699446049370    0.549200670792
 O    1.154994912595   -0.571446049370   -0.134799329208
 H   -0.516005087405    1.972553950630    0.443200670792
 H   -1.215005087405    1.339553950630   -1.069799329208
 H    0.534195912595    1.723007950630   -1.001789329208
