8
0 1 
 C    0.052029801310   -0.438229883147    0.617746933810
 C   -0.054970198690    0.439770116853   -0.617253066190
 H   -0.894970198690   -0.949229883147    0.796746933810
 H    0.838029801310   -1.180229883147    0.476746933810
 H    0.300029801310    0.172770116853    1.485746933810
 H    0.909029801310    0.911770116853   -0.778253066190
 H   -0.835954198690    1.203410116853   -0.487209066190
 H   -0.281154198690   -0.176829883147   -1.499659066190
