8
0 1 
 C    0.314828389299    0.655816862456   -0.224927146547
 C   -0.317171610701   -0.656183137544    0.231072853453
 H    1.139828389299    0.905816862456    0.438072853453
 H    0.710828389299    0.549816862456   -1.233927146547
 H   -0.391171610701    1.481816862456   -0.254927146547
 H   -1.045171610701   -0.964183137544   -0.520927146547
 H   -0.844361610701   -0.536173137544    1.189020853453
 H    0.457948389299   -1.432733137544    0.309511853453
