7
-1 1 
 C   -0.836355034536    1.066060265139   -0.491534433830
 C    0.046644965464   -0.059939734861    0.033465566170
 O    0.028644965464   -1.151939734861   -0.572534433830
 O    0.765644965464    0.144060265139    1.032465566170
 H   -0.876355034536    1.878060265139    0.237465566170
 H   -1.849355034536    0.684060265139   -0.626534433830
 H   -0.477305034536    1.453953265139   -1.456224433830
