8
0 1 
 C    0.581669720874    0.288032919750    0.424051828102
 C   -0.581330279126   -0.296967080250   -0.419948171898
 H    0.877669720874   -0.423967080250    1.196051828102
 H    1.420669720874    0.486032919750   -0.226948171898
 H    0.323669720874    1.237032919750    0.890051828102
 H   -0.859330279126    0.472032919750   -1.143948171898
 H   -1.457450279126   -0.465647080250    0.223444528102
 H   -0.309270279126   -1.199107080250   -0.987513371898
