15
0 1 
 C    1.854276573687   -0.133071567632   -1.631313530988
 C    0.972276573687    0.018928432368    0.761686469012
 C    0.714276573687   -0.040071567632   -0.624313530988
 C   -0.083723426313    0.090928432368    1.697686469012
 C   -0.613723426313   -0.029071567632   -1.072313530988
 C   -1.407723426313    0.087928432368    1.229686469012
 C   -1.670723426313    0.029928432368   -0.155313530988
 H    1.999276573687    0.009928432368    1.105686469012
 H    0.129276573687    0.146928432368    2.760686469012
 H    1.581276573687   -0.894071567632   -2.360313530988
 H    2.734276573687   -0.470071567632   -1.088313530988
 H   -0.821723426313   -0.065071567632   -2.134313530988
 H   -2.230723426313    0.130928432368    1.932686469012
 H   -2.691723426313    0.032928432368   -0.515313530988
 H    2.098930573687    0.804888432368   -2.151293530988
