8
0 1 
 C   -0.127554959438   -0.539122991575   -0.549729654101
 C    0.118445040562    0.539877008425    0.550270345899
 H   -1.196554959438   -0.672122991575   -0.720729654101
 H    0.335445040562   -0.232122991575   -1.484729654101
 H    0.326445040562   -1.491122991575   -0.275729654101
 H    1.189445040562    0.524877008425    0.769270345899
 H   -0.406114959438    0.305707008425    1.488360345899
 H   -0.140194959438    1.555807008425    0.217120345899
