8
0 1 
 C   -0.012659871115    0.701322458169    0.299317762335
 C    0.010340128885   -0.702677541831   -0.300682237665
 H   -1.039659871115    0.992322458169    0.532317762335
 H    0.549340128885    0.735322458169    1.226317762335
 H    0.415340128885    1.428322458169   -0.391682237665
 H    1.028340128885   -0.932677541831   -0.618682237665
 H   -0.651599871115   -0.748477541831   -1.178022237665
 H   -0.274139871115   -1.458677541831    0.445997762335
