19
0 1 
 C    2.143852783209    1.030103433977   -0.908147825639
 C    3.271852783209    0.499103433977   -0.024147825639
 C    0.805852783209    0.488103433977   -0.477147825639
 C    0.376852783209   -0.773896566023   -0.886147825639
 C    0.000852783209    1.204103433977    0.403852174361
 C   -0.845147216791   -1.310896566023   -0.431147825639
 C   -1.219147216791    0.686103433977    0.849852174361
 C   -1.627147216791   -0.573896566023    0.445852174361
 O   -2.829147216791   -1.061896566023    0.897852174361
 H    2.127852783209    2.121103433977   -0.875147825639
 H    2.344852783209    0.725103433977   -1.932147825639
 H    3.270852783209   -0.590896566023   -0.091147825639
 H    0.998852783209   -1.348896566023   -1.559147825639
 H    0.288852783209    2.192103433977    0.714852174361
 H   -1.167147216791   -2.288896566023   -0.758147825639
 H   -1.844147216791    1.259103433977    1.517852174361
 H   -3.104147216791   -1.775896566023    0.319852174361
 H    3.121272783209    0.807833433977    1.020842174361
 H    4.240582783209    0.882833433977   -0.376737825639
