10
-1 1 
 C    0.558388933406   -0.412965002725    0.821953016175
 C    0.259388933406    0.708034997275    1.804953016175
 C   -0.095611066594   -0.176965002725   -0.512046983825
 O   -1.308611066594    0.108034997275   -0.572046983825
 O    0.614388933406   -0.261965002725   -1.520046983825
 H    1.622388933406   -0.536965002725    0.675953016175
 H    0.194388933406   -1.352965002725    1.226953016175
 H    0.259388933406    1.661034997275    1.275953016175
 H    1.060099933406    0.721784997275    2.559053016175
 H   -0.717174066594    0.543834997275    2.283873016175
