12
0 1 
 C   -0.066207939318   -0.837798948994   -0.646172245499
 C    1.113792060682   -0.950798948994   -1.586172245499
 C   -1.399207939318    0.613201051006    1.225827754501
 S    0.196792060682    0.554201051006    0.457827754501
 H   -0.992207939318   -0.706798948994   -1.205172245499
 H   -0.139207939318   -1.747798948994   -0.051172245499
 H    1.065792060682   -1.920798948994   -2.073172245499
 H    2.028792060682   -0.920798948994   -0.993172245499
 H   -1.523207939318   -0.247798948994    1.883827754501
 H   -1.477207939318    1.535201051006    1.802827754501
 H   -2.174207939318    0.600201051006    0.463827754501
 H    1.155182060682   -0.177538948994   -2.367422245499
