9
0 1 
 C   -1.075196727892   -0.277535624822    0.929415132407
 C    0.007803272108    0.012464375178   -0.082584867593
 O   -0.220196727892    0.010464375178   -1.290584867593
 N    1.215803272108    0.236464375178    0.405415132407
 H   -0.811196727892    0.168464375178    1.886415132407
 H   -1.102196727892   -1.358535624822    1.063415132407
 H    1.958803272108    0.490464375178   -0.223584867593
 H    1.335803272108    0.320464375178    1.410415132407
 H   -2.070056727892    0.083704375178    0.629815132407
