11
0 1 
 C   -0.520386920188   -0.344184260718    0.081377927439
 C   -0.169386920188    0.570815739282   -1.080622072561
 C    0.651613079812   -0.256184260718    1.001377927439
 H   -0.713386920188   -1.363184260718   -0.245622072561
 H   -1.403386920188    0.047815739282    0.587377927439
 H    0.349613079812    0.010815739282   -1.856622072561
 H   -1.075386920188    1.020815739282   -1.466622072561
 H    1.374613079812   -1.017184260718    0.698377927439
 H    0.361613079812   -0.429184260718    2.030377927439
 H    0.494284079812    1.328444739282   -0.638422072561
 H    1.066411079812    0.753540739282    0.865747927439
