11
0 1 
 C    0.521075890788    0.183953966624   -0.141582073626
 C   -0.559924109212   -0.137046033376   -1.166582073626
 C    0.071075890788   -0.033046033376    1.297417926374
 H    1.319075890788   -0.526046033376   -0.316582073626
 H    0.873075890788    1.208953966624   -0.257582073626
 H   -1.441924109212    0.442953966624   -0.938582073626
 H    0.839075890788    0.355953966624    1.961417926374
 H   -0.841924109212    0.533953966624    1.479417926374
 H   -0.118924109212   -1.080046033376    1.517417926374
 H   -0.221928509212    0.111394966624   -2.183462073626
 H   -0.790256209212   -1.212170033376   -1.134092073626
