11
0 1 
 C    0.196769941102    0.092504195158   -0.523598780355
 C   -1.238230058898   -0.381495804842   -0.260598780355
 C    1.050769941102    0.288504195158    0.753401219645
 H    0.698769941102   -0.609495804842   -1.190598780355
 H    0.161769941102    1.057504195158   -1.015598780355
 H   -1.669230058898    0.218504195158    0.540401219645
 H    1.182769941102   -0.654495804842    1.281401219645
 H    2.031769941102    0.658504195158    0.462401219645
 H    0.573769941102    1.015504195158    1.409401219645
 H   -1.846570058898   -0.242245804842   -1.166428780355
 H   -1.243900058898   -1.437975804842    0.045708219645
