10
-1 1 
 C   -0.193971576023    0.805923903095   -0.694825752572
 C    1.169028423977    0.771923903095   -1.395825752572
 C   -0.303971576023   -0.238076096905    0.402174247428
 O   -0.281971576023   -1.450076096905    0.088174247428
 O   -0.418971576023    0.156923903095    1.584174247428
 H   -0.382971576023    1.785923903095   -0.272825752572
 H   -0.974971576023    0.612923903095   -1.425825752572
 H    1.279028423977   -0.220076096905   -1.828825752572
 H    1.995698423977    0.901936903095   -0.681883752572
 H    1.217195423977    1.490122903095   -2.227613752572
