16
0 1 
 C    0.199271446007    0.304555530391    2.907248584709
 C   -0.104728553993   -0.139444469609   -1.359751415291
 C    1.126271446007   -0.281444469609   -0.730751415291
 C   -1.240728553993    0.145555530391   -0.610751415291
 C    1.217271446007   -0.138444469609    0.649248584709
 C   -1.140728553993    0.289555530391    0.770248584709
 C    0.085271446007    0.139555530391    1.413248584709
 O   -0.192728553993   -0.276444469609   -2.709751415291
 H    0.665271446007   -0.454444469609   -3.093751415291
 H    2.014271446007   -0.490444469609   -1.302751415291
 H   -2.186728553993    0.266555530391   -1.114751415291
 H    2.177271446007   -0.242444469609    1.138248584709
 H   -2.022728553993    0.526555530391    1.349248584709
 H    0.931271446007   -0.413444469609    3.274248584709
 H   -0.751728553993    0.073555530391    3.390248584709
 H    0.542261446007    1.312625530391    3.183223584709
