11
0 1 
 C    0.052262349048   -0.455505257686    0.306975520425
 C    0.543262349048   -0.394505257686   -1.139024479575
 C   -0.588737650952    0.824494742314    0.847975520425
 H   -0.683737650952   -1.259505257686    0.386975520425
 H    0.883262349048   -0.717505257686    0.930975520425
 H    1.367262349048    0.313494742314   -1.198024479575
 H   -1.439737650952    1.092494742314    0.222975520425
 H   -0.277805650952   -0.066835257686   -1.793608479575
 H    0.927342349048   -1.386595257686   -1.418750479575
 H   -0.983418650952    0.668206742314    1.862766520425
 H    0.126020349048    1.660056742314    0.817055520425
