16
0 1 
 C    1.095424282323    1.541155068363   -2.241466573315
 C    0.386424282323    0.294155068363    1.280533426685
 C    0.901424282323    1.026155068363    0.213533426685
 C   -0.523575717677   -0.730844931637    1.041533426685
 C    0.520424282323    0.746155068363   -1.098466573315
 C   -0.928575717677   -1.017844931637   -0.267466573315
 C   -0.404575717677   -0.273844931637   -1.328466573315
 O   -0.983575717677   -1.445844931637    2.100533426685
 H    0.703424282323    0.519155068363    2.289533426685
 H    1.618424282323    1.814155068363    0.407533426685
 H   -0.608575717677   -1.128844931637    2.923533426685
 H   -1.631575717677   -1.813844931637   -0.449466573315
 H    0.915424282323    1.018155068363   -3.182466573315
 H    2.176424282323    1.609155068363   -2.103466573315
 H   -0.707575717677   -0.501844931637   -2.342466573315
 H    0.677998282323    2.557181568363   -2.300167573315
