8
0 1 
 C   -0.253930787222   -0.207863166270   -0.695753681433
 C    0.251069212778    0.211136833730    0.694246318567
 H   -0.543930787222    0.675136833730   -1.264753681433
 H    0.532069212778   -0.734863166270   -1.234753681433
 H   -1.115930787222   -0.858863166270   -0.590753681433
 H    0.540069212778   -0.682863166270    1.250246318567
 H   -0.542188787222    0.742536833730    1.240446318567
 H    1.163984212778    0.819936833730    0.617516318567
