12
0 1 
 C    0.034322455666    0.063720346122    1.097036841591
 C   -1.462677544334   -0.016279653878    1.336036841591
 C    0.428322455666    0.012720346122   -0.368963158409
 O    1.611322455666    0.138720346122   -0.688963158409
 N   -0.527677544334   -0.190279653878   -1.272963158409
 H    0.409322455666    0.996720346122    1.520036841591
 H    0.521322455666   -0.769279653878    1.604036841591
 H   -1.856677544334   -0.938279653878    0.934036841591
 H   -1.938677544334    0.830720346122    0.837036841591
 H   -0.256677544334   -0.187279653878   -2.245963158409
 H   -1.497677544334   -0.227279653878   -1.010963158409
 H   -1.714837544334    0.020570346122    2.406109841591
