8
0 1 
 C    0.583667160215    0.256114611903   -0.421454702436
 C   -0.585332839785   -0.255885388097    0.418545297564
 H    0.295667160215    1.156114611903   -0.964454702436
 H    1.420667160215    0.496114611903    0.232545297564
 H    0.901667160215   -0.519885388097   -1.118454702436
 H   -0.936332839785    0.555114611903    1.051545297564
 H   -1.402502839785   -0.604868388097   -0.229874702436
 H   -0.259332839785   -1.085319388097    1.063335297564
