12
0 1 
 C    0.612035386751    0.162859039602    0.923818118851
 C   -0.471964613249   -0.359140960398    1.842818118851
 C    0.161035386751    0.112859039602   -0.523181881149
 O    0.749035386751    0.750859039602   -1.378181881149
 N   -0.924964613249   -0.607140960398   -0.816181881149
 H    0.836035386751    1.199859039602    1.178818118851
 H    1.515035386751   -0.437140960398    1.044818118851
 H   -0.509964613249   -1.450140960398    1.785818118851
 H   -1.430964613249    0.041859039602    1.507818118851
 H   -1.179964613249   -0.696140960398   -1.795181881149
 H   -1.459964613249   -1.098140960398   -0.116181881149
 H   -0.391384613249   -0.047700960398    2.894728118851
