8
0 1 
 C    0.543394746224   -0.497766935205    0.168069766684
 C   -0.543605253776    0.501233064795   -0.167930233316
 H    1.257394746224   -0.576766935205   -0.651930233316
 H    1.062394746224   -0.187766935205    1.074069766684
 H    0.098394746224   -1.478766935205    0.340069766684
 H   -1.211605253776    0.582233064795    0.689069766684
 H   -1.116885253776    0.148677064795   -1.038020233316
 H   -0.087187253776    1.471120064795   -0.414920233316
