8
0 1 
 C   -0.624293819325   -0.434235249815   -0.149259506192
 C    0.624706180675    0.435764750185    0.149740493808
 H   -0.501293819325   -0.939235249815   -1.108259506192
 H   -0.755293819325   -1.181235249815    0.633740493808
 H   -1.510293819325    0.194764750185   -0.191259506192
 H    1.510706180675   -0.199235249815    0.172740493808
 H    0.747816180675    1.188064750185   -0.643319506192
 H    0.503449180675    0.918664750185    1.130630493808
