19
0 1 
 C   -0.487047401921   -0.933495324906    2.775730523975
 C   -0.332047401921   -0.003495324906    0.331730523975
 C    0.228952598079   -0.593495324906    1.516730523975
 C    0.703952598079    0.024504675094   -0.644269476025
 C    1.526952598079   -0.871495324906    1.243730523975
 C   -1.795047401921    1.010504675094   -1.318269476025
 C   -0.731047401921    1.019504675094   -2.246269476025
 C   -1.607047401921    0.465504675094   -0.030269476025
 C    0.525952598079    0.559504675094   -1.907269476025
 N    1.815952598079   -0.489495324906   -0.041269476025
 H   -2.768047401921    1.379504675094   -1.608269476025
 H   -0.906047401921    1.401504675094   -3.242269476025
 H   -2.424047401921    0.424504675094    0.645730523975
 H    1.338952598079    0.571504675094   -2.618269476025
 H   -1.077047401921   -0.085495324906    3.112730523975
 H    0.240952598079   -1.171495324906    3.552730523975
 H    2.219952598079   -1.352495324906    1.927730523975
 H    2.710952598079   -0.638495324906   -0.503269476025
 H   -1.153197401921   -1.795195324906    2.621730523975
