11
0 1 
 C    0.259228498917   -0.396215516408   -0.427576026702
 C    0.355228498917    1.108784483592   -0.376576026702
 C   -0.595771501083   -0.745215516408    0.766423973298
 H    1.252228498917   -0.831215516408   -0.307576026702
 H   -0.195771501083   -0.744215516408   -1.354576026702
 H    1.309228498917    1.442784483592   -0.786576026702
 H   -0.480771501083    1.552784483592   -0.918576026702
 H   -0.470771501083   -1.788215516408    1.059423973298
 H   -1.643771501083   -0.553215516408    0.526423973298
 H    0.270847498917    1.342512483592    0.694983973298
 H   -0.263703501083   -0.032502516408    1.535693973298
