16
0 1 
 C    2.041414181615   -1.971571915204    0.735027737453
 C   -1.096585818385   -0.360571915204   -0.774972262547
 C   -0.144585818385   -1.333571915204   -0.463972262547
 C   -0.927585818385    0.949428084796   -0.333972262547
 C    0.960414181615   -0.997571915204    0.345027737453
 C    0.151414181615    1.271428084796    0.463027737453
 C    1.091414181615    0.313428084796    0.783027737453
 O   -1.837585818385    1.917428084796   -0.648972262547
 H   -1.951585818385   -0.620571915204   -1.382972262547
 H   -0.289585818385   -2.339571915204   -0.832972262547
 H   -2.548585818385    1.575428084796   -1.204972262547
 H    0.265414181615    2.287428084796    0.815027737453
 H    2.215414181615   -1.880571915204    1.809027737453
 H    2.958414181615   -1.657571915204    0.238027737453
 H    1.937414181615    0.584428084796    1.392027737453
 H    1.859544181615   -3.030292915204    0.498312737453
