12
0 1 
 C    0.709290018576   -0.784186950880    0.104700275994
 C    1.816290018576   -0.591186950880    1.118700275994
 C   -1.768709981424   -0.009186950880   -0.947299724006
 S   -0.326709981424    0.666813049120   -0.112299724006
 H    1.172290018576   -1.015186950880   -0.850299724006
 H    0.082290018576   -1.622186950880    0.400700275994
 H    1.394290018576   -0.240186950880    2.054700275994
 H    2.493290018576    0.163813049120    0.753700275994
 H   -2.228709981424   -0.772186950880   -0.320299724006
 H   -2.488709981424    0.787813049120   -1.134299724006
 H   -1.468709981424   -0.456186950880   -1.896299724006
 H    2.396540018576   -1.513826950880    1.267190275994
