8
0 1 
 C   -0.008581367293    0.573633395241   -0.502455459878
 C    0.003418632707   -0.573366604759    0.505544540122
 H    0.654418632707    1.374633395241   -0.173455459878
 H    0.342418632707    0.216633395241   -1.472455459878
 H   -1.016581367293    0.971633395241   -0.615455459878
 H    1.038418632707   -0.891366604759    0.632544540122
 H   -0.394534367293   -0.242452604759    1.476178150122
 H   -0.562668367293   -1.432257604759    0.115862540122
