8
0 1 
 C    0.360888960753   -0.550242064521    0.388951045458
 C   -0.358111039247    0.550757935479   -0.392048954542
 H    1.040888960753   -1.098242064521   -0.265048954542
 H    0.928888960753   -0.124242064521    1.215951045458
 H   -0.361111039247   -1.237242064521    0.821951045458
 H   -1.086111039247    1.012757935479    0.274951045458
 H   -0.886971039247    0.115147935479   -1.252598954542
 H    0.331338960753    1.325677935479   -0.758318954542
