8
0 1 
 C   -0.649111777163    0.337996969757   -0.214442292016
 C    0.651888222837   -0.340003030243    0.211557707984
 H   -0.717111777163    0.385996969757   -1.300442292016
 H   -1.510111777163   -0.212003030243    0.156557707984
 H   -0.700111777163    1.349996969757    0.188557707984
 H    0.776888222837   -0.196003030243    1.277557707984
 H    1.514428222837    0.115916969757   -0.296532292016
 H    0.602960222837   -1.420019030243    0.008647707984
