8
0 1 
 C    0.248539888748    0.354204988542   -0.630092207000
 C   -0.256460111252   -0.362795011458    0.623907793000
 H    0.673539888748   -0.360795011458   -1.330092207000
 H   -0.544460111252    0.968204988542   -1.056092207000
 H    1.062539888748    1.018204988542   -0.348092207000
 H   -0.186460111252    0.334204988542    1.461907793000
 H    0.406602888748   -1.219535011458    0.814547793000
 H   -1.317457711252   -0.638005011458    0.531457793000
