8
0 1 
 C    0.638764705151    0.082475633809    0.406624210568
 C   -0.639235294849   -0.086524366191   -0.405375789432
 H    1.112764705151   -0.884524366191    0.559624210568
 H    1.326764705151    0.738475633809   -0.127375789432
 H    0.412764705151    0.531475633809    1.371624210568
 H   -1.066235294849    0.901475633809   -0.552375789432
 H   -1.363655294849   -0.721022406191    0.126250210568
 H   -0.416800294849   -0.517672566191   -1.392611789432
