8
0 1 
 C   -0.630045420238   -0.341810393723    0.273573785938
 C    0.634954579762    0.347189606277   -0.274426214062
 H   -0.712045420238   -1.363810393723   -0.102426214062
 H   -0.617045420238   -0.362810393723    1.360573785938
 H   -1.517045420238    0.219189606277   -0.007426214062
 H    0.686954579762    1.383189606277    0.056573785938
 H    0.594114579762    0.285929606277   -1.371959214062
 H    1.506614579762   -0.225737393723    0.074813785938
