15
0 1 
 C    1.940598157173   -0.281066956387    1.481608012681
 C   -1.629401842827    0.231933043613    0.242608012681
 C   -1.462401842827    0.205933043613   -1.127391987319
 C   -0.527401842827    0.062933043613    1.101608012681
 C    0.740598157173   -0.114066956387    0.579608012681
 C   -0.199401842827    0.046933043613   -1.657391987319
 C    0.892598157173   -0.114066956387   -0.805391987319
 H   -2.618401842827    0.370933043613    0.659608012681
 H   -2.312401842827    0.331933043613   -1.784391987319
 H   -0.678401842827    0.076933043613    2.172608012681
 H   -0.061401842827    0.044933043613   -2.729391987319
 H    2.398598157173   -1.243066956387    1.249608012681
 H    1.627598157173   -0.302066956387    2.526608012681
 H    1.873598157173   -0.254066956387   -1.235391987319
 H    2.685758157173    0.515683043613    1.340458012681
