9
0 1 
 C    0.183164911856   -0.425425950095    0.330630157644
 C    1.038164911856    0.260574049905   -0.720369842356
 O   -1.090835088144    0.177574049905    0.333630157644
 H    0.085164911856   -1.484425950095    0.085630157644
 H    0.648164911856   -0.322425950095    1.312630157644
 H    0.504164911856    0.191574049905   -1.668369842356
 H   -1.657835088144   -0.309425950095    0.949630157644
 H    2.001454911856   -0.260445950095   -0.823359842356
 H    1.189064911856    1.329784049905   -0.510549842356
