9
0 1 
 C    1.288728521598   -0.692376997799    0.235086785403
 C   -0.027271478402    0.020623002201   -0.051913214597
 O   -0.453271478402    0.185623002201   -1.180913214597
 N   -0.760271478402    0.459623002201    0.941086785403
 H   -1.626271478402    0.927623002201    0.700086785403
 H   -0.458271478402    0.303623002201    1.880086785403
 H    1.976728521598    0.025623002201    0.683086785403
 H    1.713728521598   -1.053376997799   -0.699913214597
 H    1.131358521598   -1.537166997799    0.921796785403
