8
0 1 
 C    0.726152753598   -0.223190729455    0.098385639192
 C   -0.730847246402    0.220809270545   -0.101614360808
 H    1.011152753598   -0.926190729455   -0.682614360808
 H    1.380152753598    0.647809270545    0.046385639192
 H    0.852152753598   -0.699190729455    1.069385639192
 H   -0.932847246402    1.026809270545    0.603385639192
 H   -1.392357246402   -0.628370729455    0.124880639192
 H   -0.862357246402    0.607489270545   -1.122979360808
