8
0 1 
 C   -0.747007708839   -0.074797621027   -0.143108389454
 C    0.747992291161    0.073202378973    0.145891610546
 H   -1.317007708839    0.374202378973    0.659891610546
 H   -1.005007708839    0.446202378973   -1.061108389454
 H   -1.012007708839   -1.127797621027   -0.244108389454
 H    1.289992291161   -0.346797621027   -0.699108389454
 H    1.027385291161   -0.464753621027    1.063791610546
 H    1.004922291161    1.137938378973    0.247502610546
