10
-1 1 
 C    0.659277280033   -0.807012480261   -0.266621294616
 C    1.061277280033   -0.359012480261   -1.666621294616
 C   -0.308722719967    0.137987519739    0.432378705384
 O   -1.421722719967   -0.297012480261    0.718378705384
 O    0.035277280033    1.294987519739    0.795378705384
 H    0.202277280033   -1.795012480261   -0.354621294616
 H    1.551277280033   -0.932012480261    0.341378705384
 H    0.167277280033   -0.400012480261   -2.289621294616
 H    1.756277280033   -1.105012480261   -2.055621294616
 H    1.516346280033    0.634127519739   -1.795414294616
