7
-1 1 
 C    0.343587221751    0.454167047247    1.323221034620
 C   -0.020412778249   -0.026832952753   -0.081778965380
 O   -1.002412778249    0.502167047247   -0.665778965380
 O    0.681587221751   -0.930832952753   -0.583778965380
 H   -0.115412778249   -0.216832952753    2.053221034620
 H   -0.068412778249    1.451167047247    1.488221034620
 H    1.427577221751    0.480711047247    1.508311034620
