12
0 1 
 C    0.895967147708   -0.120685414132   -0.589624907877
 C    1.769967147708   -0.684685414132    0.518375092123
 C   -0.496032852292    0.136314585868   -0.109624907877
 O   -1.230032852292   -0.789685414132    0.233375092123
 N   -0.886032852292    1.392314585868   -0.099624907877
 H    1.337967147708    0.786314585868   -1.004624907877
 H    0.813967147708   -0.857685414132   -1.387624907877
 H    1.192967147708   -1.436685414132    1.063375092123
 H   -1.803032852292    1.627314585868    0.235375092123
 H   -0.238032852292    2.123314585868   -0.373624907877
 H    2.055217147708    0.121124585868    1.210695092123
 H    2.636667147708   -1.209785414132    0.090465092123
