8
1 1 
 C    0.626942238422    0.401748508230    0.267443026187
 N   -0.553057761578   -0.358251491770   -0.236556973813
 H   -0.852057761578   -1.061251491770    0.427443026187
 H   -1.341057761578    0.260748508230   -0.395556973813
 H   -0.352057761578   -0.831251491770   -1.110556973813
 H    0.392942238422    0.825748508230    1.248443026187
 H    0.849942238422    1.233748508230   -0.409556973813
 H    1.521773238422   -0.233621491770    0.342192026187
