6
0 1 
 C   -0.030068974162   -0.364948464642   -0.637376796769
 O    0.022931025838    0.296051535358    0.624623203231
 H    0.179931025838    1.248051535358    0.491623203231
 H    0.961931025838   -0.721948464642   -0.915376796769
 H   -0.731208974162   -1.200478464642   -0.494956796769
 H   -0.416558974162    0.321201535358   -1.405376796769
