15
0 1 
 C   -1.281649083326   -1.305501623973    1.624992394460
 C   -1.043649083326   -0.174501623973   -0.576007605540
 C   -0.473649083326   -0.502501623973    0.645992394460
 C   -0.342649083326    0.570498376027   -1.517007605540
 C    0.831350916674   -0.082501623973    0.906992394460
 C    0.950350916674    0.986498376027   -1.243007605540
 C    1.534350916674    0.666498376027   -0.039007605540
 H   -2.047649083326   -0.503501623973   -0.804007605540
 H   -0.796649083326    0.785498376027   -2.469007605540
 H   -1.666649083326   -2.180501623973    1.112992394460
 H   -2.135649083326   -0.688501623973    1.907992394460
 H    1.300350916674   -0.257501623973    1.845992394460
 H    1.497350916674    1.571498376027   -1.969007605540
 H    2.540350916674    1.001498376027    0.173992394460
 H   -0.768679083326   -1.615585623973    2.547332394460
