15
0 1 
 C   -0.360009758682   -2.112862413464   -1.147486971948
 C    0.238990241318    1.613137586536    0.882513028052
 C    1.333990241318    0.953137586536    0.360513028052
 C   -1.004009758682    1.053137586536    0.755513028052
 C    1.149990241318   -0.276862413464   -0.326486971948
 C   -1.185009758682   -0.144862413464    0.079513028052
 C   -0.124009758682   -0.819862413464   -0.460486971948
 H    0.363990241317    2.551137586536    1.407513028052
 H    2.323990241318    1.375137586536    0.466513028052
 H   -1.861009758682    1.557137586536    1.179513028052
 H    2.005990241318   -0.788862413464   -0.744486971948
 H   -2.181009758682   -0.553862413464   -0.005486971948
 H    0.116990241318   -2.068862413464   -2.128486971948
 H   -1.427009758682   -2.271862413464   -1.304486971948
 H    0.063540241318   -2.954833413464   -0.580306971948
