8
0 1 
 C   -0.018682994772   -0.760473272096   -0.051098702592
 C    0.023317005228    0.765526727904    0.046901297408
 H    0.594317005228   -1.106473272096   -0.886098702592
 H    0.302317005228   -1.232473272096    0.871901297408
 H   -1.032682994772   -1.126473272096   -0.193098702592
 H   -0.476682994772    1.054526727904    0.967901297408
 H   -0.508175394772    1.235803727904   -0.793548702592
 H    1.065731005228    1.114918727904    0.082921297408
