8
0 1 
 C    0.491587498737    0.252587772817   -0.521596600023
 C   -0.493412501263   -0.253412227183    0.521403399977
 H    0.415587498737   -0.343412227183   -1.427596600023
 H    0.255587498737    1.277587772817   -0.780596600023
 H    1.509587498737    0.208587772817   -0.133596600023
 H   -0.410412501263    0.340587772817    1.422403399977
 H   -0.220840501263   -1.290192227183    0.767946399977
 H   -1.527779501263   -0.183342227183    0.153740399977
