8
0 1 
 C   -0.506797833769   -0.276926913626    0.488893504247
 C    0.503202166231    0.271073086374   -0.495106495753
 H   -0.161797833769   -1.197926913626    0.941893504247
 H   -0.587797833769    0.420073086374    1.306893504247
 H   -1.470797833769   -0.424926913626    0.001893504247
 H    1.445202166231    0.439073086374    0.030893504247
 H    0.141202166231    1.233073086374   -0.858106495753
 H    0.676802166231   -0.399664913626   -1.349490495753
