16
0 1 
 C    2.795161253703    0.156647010214   -0.878932528248
 C    0.364161253703   -0.306352989786   -1.286932528248
 C    1.367161253703    0.050647010214   -0.391932528248
 C   -0.962838746297   -0.369352989786   -0.892932528248
 C   -1.306838746297   -0.058352989786    0.414067471752
 C    1.016161253703    0.370647010214    0.921067471752
 C   -0.319838746297    0.311647010214    1.329067471752
 O   -2.614838746297   -0.128352989786    0.773067471752
 H    0.624161253703   -0.528352989786   -2.309932528248
 H   -1.723838746297   -0.651352989786   -1.606932528248
 H    3.040161253703   -0.725352989786   -1.470932528248
 H    3.471161253703    0.195647010214   -0.027932528248
 H    1.780161253703    0.665647010214    1.625067471752
 H   -3.176838746297   -0.378352989786    0.037067471752
 H   -0.597838746297    0.547647010214    2.344067471752
 H    2.919861253703    1.059668010214   -1.494563528248
