18
0 1 
 C   -0.049171988687    1.726972869919    1.083950637293
 C   -0.308171988687    2.802972869919    0.019950637293
 C    0.001828011313    0.369972869919    0.494950637293
 C    1.227828011313   -0.159027130081    0.116950637293
 C   -1.169171988687   -0.328027130081    0.191950637293
 C    1.309828011313   -1.353027130081   -0.556049362707
 C   -1.113171988687   -1.547027130081   -0.503049362707
 C    0.147828011313   -2.065027130081   -0.882049362707
 H    0.891828011313    1.937972869919    1.593950637293
 H   -0.840171988687    1.762972869919    1.831950637293
 H   -1.230171988687    2.525972869919   -0.486049362707
 H    2.134828011313    0.395972869919    0.314950637293
 H   -2.133171988687    0.087972869919    0.444950637293
 H    2.264828011313   -1.707027130081   -0.904049362707
 H   -2.023171988687   -2.076027130081   -0.754049362707
 H    0.210828011313   -2.993027130081   -1.435049362707
 H    0.542036011313    2.835816869919   -0.677234362707
 H   -0.384711988687    3.804553869919    0.468256637293
