15
0 1 
 C   -1.983184525816    0.674298499434   -1.265727350278
 C    1.305815474184    0.821298499434    0.626272649722
 C    0.182815474184    1.204298499434   -0.098727350278
 C    1.494815474184   -0.512701500566    0.967272649722
 C   -0.757184525816    0.260298499434   -0.492727350278
 C    0.558815474184   -1.460701500566    0.579272649722
 C   -0.558184525816   -1.070701500566   -0.144727350278
 H    2.029815474184    1.562298499434    0.933272649722
 H    0.040815474184    2.246298499434   -0.350727350278
 H    2.369815474184   -0.808701500566    1.531272649722
 H    0.709815474184   -2.503701500566    0.818272649722
 H   -2.339184525816   -0.173701500566   -1.852727350278
 H   -1.711184525816    1.467298499434   -1.964727350278
 H   -1.200184525816   -1.819701500566   -0.527727350278
 H   -2.801501525816    1.029018499434   -0.621887350278
