8
0 1 
 C   -0.346678957263   -0.305014065454   -0.598267481934
 C    0.338321042737    0.302985934546    0.601732518066
 H   -1.353678957263    0.092985934546   -0.705267481934
 H    0.222321042737   -0.065014065454   -1.496267481934
 H   -0.392678957263   -1.390014065454   -0.503267481934
 H    0.470321042737    1.370985934546    0.425732518066
 H    1.335321042737   -0.131014065454    0.679732518066
 H   -0.182088957263    0.146218934546    1.558079818066
