8
0 1 
 C   -0.573035676850    0.381702681784   -0.330945670157
 C    0.574964323150   -0.377297318216    0.332054329843
 H   -0.328035676850    1.437702681784   -0.435945670157
 H   -0.767035676850   -0.036297318216   -1.319945670157
 H   -1.471035676850    0.285702681784    0.277054329843
 H    0.319964323150   -1.436297318216    0.347054329843
 H    0.717484323150   -0.025147318216    1.364371329843
 H    1.505694323150   -0.278117318216   -0.245789270157
