15
0 1 
 C    0.937335967892    2.247583551814    0.087134198884
 C   -1.429664032108   -0.680416448186    0.538134198884
 C   -0.693664032108   -1.716416448186   -0.030865801116
 C   -0.904664032108    0.609583551814    0.562134198884
 C    0.346335967892    0.877583551814    0.002134198884
 C    0.549335967892   -1.456416448186   -0.593865801116
 C    1.074335967892   -0.162416448186   -0.576865801116
 H   -2.397664032108   -0.886416448186    0.972134198884
 H   -1.089664032108   -2.722416448186   -0.040865801116
 H   -1.475664032108    1.407583551814    1.012134198884
 H    1.108335967892   -2.259416448186   -1.051865801116
 H    0.158335967892    2.982583551814    0.290134198884
 H    1.372335967892    2.487583551814   -0.883865801116
 H    2.044335967892    0.028583551814   -1.015865801116
 H    1.716185967892    2.306723551814    0.861664198884
