9
0 1 
 C   -0.937442828426   -1.100758431810    0.038159833930
 C    0.019557171574    0.065241568190   -0.056840166070
 O   -0.301442828426    1.097241568190   -0.635840166070
 N    1.160557171574   -0.057758431810    0.595159833930
 H   -1.817442828426   -0.748758431810    0.562159833930
 H   -0.491442828426   -1.893758431810    0.638159833930
 H    1.746557171574    0.762241568190    0.705159833930
 H    1.389557171574   -0.908758431810    1.083159833930
 H   -1.239192828426   -1.492748431810   -0.944330166070
