13
1 1 
 C   -0.156465014436   -1.934558018815    0.415626844812
 C    0.047534985564    0.471441981185   -0.107373155188
 N    0.493534985564   -0.775558018815   -0.199373155188
 N   -1.053465014436    0.738441981185    0.572626844812
 N    0.700534985564    1.457441981185   -0.692373155188
 H    1.399534985564   -0.930558018815   -0.639373155188
 H    0.392534985564   -2.838558018815    0.142626844812
 H   -1.178465014436   -2.032558018815    0.042626844812
 H   -1.617465014436   -0.009558018815    0.935626844812
 H   -1.394465014436    1.685441981185    0.632626844812
 H    1.548534985564    1.247441981185   -1.204373155188
 H    0.352534985564    2.401441981185   -0.657373155188
 H   -0.159348224436   -1.836528018815    1.511245844812
