8
0 1 
 C   -0.582803094066    0.484007166426    0.071112681853
 C    0.580196905934   -0.485992833574   -0.079887318147
 H   -1.527803094066    0.006007166426   -0.183887318147
 H   -0.630803094066    0.805007166426    1.110112681853
 H   -0.428803094066    1.360007166426   -0.558887318147
 H    0.374196905934   -1.379992833574    0.511112681853
 H    1.449196905934    0.001007166426    0.347112681853
 H    0.795046905934   -0.768392833574   -1.121085318147
