8
0 1 
 C   -0.340560252340    0.194331502929   -0.657371535386
 C    0.338439747660   -0.197668497071    0.657628464614
 H    0.137439747660   -0.298668497071   -1.497371535386
 H   -1.398560252340   -0.062668497071   -0.643371535386
 H   -0.256560252340    1.274331502929   -0.776371535386
 H   -0.277560252340    0.140331502929    1.491628464614
 H    1.331729747660    0.272273502929    0.707979464614
 H    0.488759747660   -1.285866497071    0.714447464614
