12
0 1 
 C   -0.915650114234    0.750223644828    0.009668204826
 C   -0.920650114234    0.818223644828   -1.506331795174
 C    0.541349885766   -1.622776355172    0.055668204826
 S    0.609349885766    0.066223644828    0.701668204826
 H   -1.024650114234    1.764223644828    0.394668204826
 H   -1.760650114234    0.172223644828    0.369668204826
 H   -0.909650114234   -0.188776355172   -1.926331795174
 H   -0.013650114234    1.334223644828   -1.825331795174
 H    0.577349885766   -1.616776355172   -1.032331795174
 H    1.392349885766   -2.185776355172    0.436668204826
 H   -0.383650114234   -2.098776355172    0.381668204826
 H   -1.789610114234    1.365453644828   -1.900595795174
