6
0 1 
 C    0.281855972179    0.037322643616   -0.669526794527
 O   -0.274144027821    0.020322643616    0.631473205473
 H   -0.296144027821   -0.899677356384    0.966473205473
 H    1.053855972179   -0.729677356384   -0.741526794527
 H    0.734855972179    1.013322643616   -0.852526794527
 H   -0.497714027821   -0.150897356384   -1.422416794527
