19
0 1 
 C   -0.501611975735   -2.018649468455   -1.442409360633
 C    0.700388024265   -2.947649468455   -1.176409360633
 C   -0.348611975735   -0.745649468455   -0.672409360633
 C    0.733388024265    0.076350531545   -0.938409360633
 C   -1.163611975735   -0.469649468455    0.426590639367
 C    0.949388024265    1.233350531545   -0.151409360633
 C   -0.957611975735    0.666350531545    1.201590639367
 C    0.108388024265    1.489350531545    0.923590639367
 O    0.260388024265    2.614350531545    1.690590639367
 H   -0.559611975735   -1.791649468455   -2.507409360633
 H   -1.425611975735   -2.520649468455   -1.151409360633
 H    1.597388024265   -2.479649468455   -1.586409360633
 H    1.397388024265   -0.141649468455   -1.765409360633
 H   -1.978611975735   -1.138649468455    0.673590639367
 H    1.774388024265    1.898350531545   -0.372409360633
 H   -1.609611975735    0.890350531545    2.034590639367
 H    0.992388024265    3.162350531545    1.383590639367
 H    0.534228024265   -3.922028468455   -1.659087360633
 H    0.859158024265   -3.107138468455   -0.099675360633
