8
0 1 
 C   -0.334333968710   -0.423722168561   -0.549234014519
 C    0.334666031290    0.425277831439    0.549765985481
 H    0.404666031290   -1.081722168561   -1.007234014519
 H   -1.137333968710   -1.024722168561   -0.121234014519
 H   -0.754333968710    0.228277831439   -1.315234014519
 H   -0.414333968710    1.077277831439    1.004765985481
 H    1.143086031290    1.044107831439    0.133225985481
 H    0.754296031290   -0.261742168561    1.299375985481
