11
0 1 
 C   -0.264180615504   -0.108522387328    0.481138404153
 C   -0.195180615504   -1.130522387328   -0.661861595847
 C    0.437819384496    1.231477612672    0.209138404153
 H   -1.316180615504    0.092477612672    0.677138404153
 H    0.163819384496   -0.551522387328    1.383138404153
 H    0.843819384496   -1.219522387328   -0.975861595847
 H    0.097819384496    1.640477612672   -0.740861595847
 H   -0.787217615504   -0.792322387328   -1.525060895847
 H   -0.483754615504   -2.136222387328   -0.322320595847
 H    0.209356384496    1.957477612672    1.003318404153
 H    1.528833384496    1.099257612672    0.162174404153
