11
1 1 
 C   -0.182512316775    0.313513500771    0.437873187156
 C    0.096487683225    1.000513500771   -0.900126812844
 N    0.063487683225   -1.150486499229    0.425873187156
 H    0.471487683225    0.775513500771    1.183873187156
 H   -1.219512316775    0.519513500771    0.721873187156
 H    1.084487683225    0.708513500771   -1.247126812844
 H    0.104487683225    2.077513500771   -0.736126812844
 H    1.027487683225   -1.337486499229    0.157873187156
 H   -0.070512316775   -1.550486499229    1.353873187156
 H   -0.597512316775   -1.623486499229   -0.181126812844
 H   -0.658253316775    0.769773500771   -1.666368812844
