12
0 1 
 C   -0.155020494906    0.026155612178   -0.328451071963
 C   -0.482020494906    1.284155612178    0.469548928037
 C    1.344979505094   -0.088844387822   -0.551451071963
 O   -0.611020494906   -1.122844387822    0.375548928037
 H   -0.636020494906    0.073155612178   -1.304451071963
 H   -0.011020494906    1.226155612178    1.437548928037
 H    1.550979505094   -1.009844387822   -1.097451071963
 H    1.727979505094    0.736155612178   -1.151451071963
 H    1.870979505094   -0.128844387822    0.401548928037
 H   -1.556020494906   -1.164844387822    0.138548928037
 H   -1.569510494906    1.392068612178    0.594938928037
 H   -0.109330494906    2.152556612178   -0.093461071963
