12
0 1 
 C   -1.425963289999    1.385045108217   -0.959151603880
 C   -0.495963289999   -0.943954891783   -0.326151603880
 C   -0.497963289999    0.413045108217   -0.301151603880
 C    1.257036710001   -0.279954891783    0.829848396120
 N    0.601036710001   -1.353954891783    0.401848396120
 N    0.618036710001    0.811045108217    0.412848396120
 H   -1.221963289999   -1.569954891783   -0.830151603880
 H    0.885036710001   -2.312954891783    0.570848396120
 H   -2.094963289999    0.838045108217   -1.621151603880
 H   -0.819963289999    2.041045108217   -1.585151603880
 H    2.170036710001   -0.292954891783    1.416848396120
 H   -2.010523289999    2.003485108217   -0.262141603880
