7
-1 1 
 C    1.053425338883   -0.798189261604    0.617125614451
 C   -0.056574661117    0.042810738396   -0.038874385549
 O   -1.117574661117   -0.521189261604   -0.406874385549
 O    0.116425338883    1.275810738396   -0.174874385549
 H    1.314425338883   -0.372189261604    1.589125614451
 H    1.944425338883   -0.762189261604   -0.008874385549
 H    0.760785338883   -1.847849261604    0.767385614451
