8
0 1 
 C   -0.610467436780    0.454945907835   -0.020096861675
 C    0.609532563220   -0.459054092165    0.026903138325
 H   -0.719467436780    1.004945907835    0.913903138325
 H   -0.481467436780    1.180945907835   -0.821096861675
 H   -1.511467436780   -0.128054092165   -0.215096861675
 H    1.488532563220    0.127945907835    0.289903138325
 H    0.750532563220   -0.844054092165   -0.982096861675
 H    0.484468563220   -1.292814092165    0.733443138325
