16
0 1 
 C    1.256105193083    1.402452450142    2.256125121008
 C   -0.183894806917    0.669452450142   -1.205874878992
 C   -0.591894806917   -0.648547549858   -1.055874878992
 C    0.411105193083    1.339452450142   -0.133874878992
 C    0.612105193083    0.695452450142    1.085125121008
 C   -0.390894806917   -1.296547549858    0.156125121008
 C    0.214105193083   -0.629547549858    1.211125121008
 O   -1.182894806917   -1.311547549858   -2.098874878992
 H   -0.336894806917    1.173452450142   -2.148874878992
 H    0.731105193083    2.365452450142   -0.259874878992
 H   -0.694894806917   -2.325547549858    0.272125121008
 H   -1.437894806917   -2.208547549858   -1.856874878992
 H    1.603105193083    2.390452450142    1.949125121008
 H    2.134105193083    0.823452450142    2.545125121008
 H    0.383105193083   -1.152547549858    2.142125121008
 H    0.594440193083    1.505792450142    3.128775121008
