11
0 1 
 C    0.556992246108   -0.154619836244   -0.009027843120
 C   -0.547007753892   -0.917619836244   -0.749027843120
 C    0.024992246108    1.061380163756    0.761972156880
 H    1.072992246108   -0.825619836244    0.677972156880
 H    1.282992246108    0.195380163756   -0.744027843120
 H   -1.099007753892   -0.235619836244   -1.395027843120
 H   -0.658007753892    0.730380163756    1.541972156880
 H   -1.234467753892   -1.378693836244   -0.024587843120
 H   -0.127087753892   -1.679533836244   -1.422197843120
 H    0.860102246108    1.591504163756    1.243182156880
 H   -0.513977753892    1.731505163756    0.076082156880
