13
1 1 
 C   -0.410255813857   -1.229714236443    1.538702408824
 C    0.090744186143    0.302285763557   -0.370297591176
 N   -0.488255813857   -0.776714236443    0.139702408824
 N    0.814744186143    1.122285763557    0.355702408824
 N   -0.042255813857    0.541285763557   -1.649297591176
 H   -0.972255813857   -1.372714236443   -0.528297591176
 H    0.923744186143    0.970285763557    1.345702408824
 H    1.244744186143    1.929285763557   -0.074297591176
 H   -0.602255813857   -0.067714236443   -2.232297591176
 H    0.415744186143    1.354285763557   -2.080297591176
 H    0.506744186143   -0.877714236443    2.015702408824
 H   -0.380255813857   -2.321714236443    1.553702408824
 H   -1.281065813857   -0.893574236443    2.120677508824
