7
-1 1 
 C    0.245307336335   -0.908476093938    1.093431341740
 C   -0.037692663665    0.043523906062   -0.062568658260
 O   -1.182692663665    0.328523906062   -0.438568658260
 O    0.963307336335    0.535523906062   -0.596568658260
 H    0.874307336335   -0.389476093938    1.819431341740
 H    0.798307336335   -1.772476093938    0.724431341740
 H   -0.662842663665   -1.252276093938    1.610212341740
