11
0 1 
 C   -0.109765679605    0.506234918273    0.066021030374
 C   -1.234765679605   -0.534765081727    0.135021030374
 C    1.331234320395    0.045234918273   -0.209978969626
 H   -0.382765679605    1.267234918273   -0.662978969626
 H   -0.088765679605    0.997234918273    1.034021030374
 H   -0.971765679605   -1.249765081727    0.916021030374
 H    1.983234320395    0.849234918273    0.131021030374
 H   -1.348405679605   -1.056305081727   -0.826787969626
 H   -2.181355679605   -0.066885081727    0.443331030374
 H    1.611813320395   -0.856065081727    0.354767030374
 H    1.536336320395   -0.083585081727   -1.282983969626
