11
0 1 
 C    0.041578755827   -0.232648142010   -0.510577596434
 C   -0.835421244173    0.990351857990   -0.210577596434
 C    0.792578755827   -0.777648142010    0.691422403566
 H   -0.582421244173   -1.021648142010   -0.935577596434
 H    0.774578755827    0.062351857990   -1.260577596434
 H   -0.238421244173    1.714351857990    0.323422403566
 H    1.319578755827    0.053351857990    1.163422403566
 H    0.076578755827   -1.180648142010    1.410422403566
 H   -1.713427244173    0.733981857990    0.400471403566
 H   -1.145628244173    1.429571857990   -1.170191596434
 H    1.524208755827   -1.553838142010    0.422631403566
