7
-1 1 
 C   -0.590558270757   -1.300439654901   -0.129247023529
 C    0.031441729243    0.078560345099   -0.005247023529
 O   -0.359558270757    1.000560345099   -0.757247023529
 O    0.923441729243    0.227560345099    0.878752976471
 H   -1.225558270757   -1.449439654901    0.748752976471
 H    0.172441729243   -2.070439654901   -0.066247023529
 H   -1.238818270757   -1.422579654901   -1.009496023529
