15
0 1 
 C   -1.655014274758    1.042544636935   -1.463984139640
 C    1.050985725242    0.584544636935    1.155015860360
 C    1.234985725242   -0.796455363065    1.132015860360
 C    0.126985725242    1.180544636935    0.305015860360
 C   -0.616014274758    0.408544636935   -0.582984139640
 C    0.498985725242   -1.577455363065    0.243015860360
 C   -0.419014274758   -0.970455363065   -0.613984139640
 H    1.612985725242    1.180544636935    1.854015860360
 H    1.935985725242   -1.262455363065    1.809015860360
 H   -0.020014274758    2.250544636935    0.345015860360
 H    0.628985725242   -2.648455363065    0.228015860360
 H   -1.823014274758    2.078544636935   -1.164984139640
 H   -2.590014274758    0.503544636935   -1.301984139640
 H   -0.979014274758   -1.580455363065   -1.306984139640
 H   -1.408026274758    1.004494636935   -2.535221139640
