8
0 1 
 C   -0.136166751033   -0.270618082998   -0.716966425719
 C    0.144833248967    0.273381917002    0.711033574281
 H    0.723833248967   -0.791618082998   -1.129966425719
 H   -0.964166751033   -0.974618082998   -0.671966425719
 H   -0.426166751033    0.564381917002   -1.351966425719
 H    0.276833248967   -0.576618082998    1.381033574281
 H   -0.737166751033    0.815381917002    1.053033574281
 H    1.023643248967    0.930181917002    0.790473574281
