10
-1 1 
 C    0.871841938324   -0.035496628445    0.644172253276
 C    0.528841938324    1.195503371555    1.483172253276
 C   -0.177158061676   -0.320496628445   -0.424827746724
 O   -0.263158061676    0.456503371555   -1.401827746724
 O   -0.915158061676   -1.320496628445   -0.284827746724
 H    1.833841938324    0.148503371555    0.164172253276
 H    0.975841938324   -0.905496628445    1.293172253276
 H    0.559841938324    2.080503371555    0.846172253276
 H    1.251661938324    1.301133371555    2.305592253276
 H   -0.488768061676    1.091653371555    1.887762253276
