9
0 1 
 C    0.314396591410    0.261733013051    0.381593129604
 C    0.506396591410   -1.205266986949    0.015593129604
 O   -0.702603408590    0.890733013051   -0.393406870396
 H    0.033396591410    0.327733013051    1.430593129604
 H    1.255396591410    0.795733013051    0.235593129604
 H   -0.436603408590   -1.729266986949    0.180593129604
 H   -1.553603408590    0.665733013051    0.034593129604
 H    1.282131591410   -1.628596986949    0.670591129604
 H    0.797064191410   -1.333416986949   -1.037539870396
