11
0 1 
 C    0.321259620651    0.297117080054    0.356052300371
 C    0.673259620651    0.074117080054   -1.107947699629
 C   -0.977740379349   -0.342882919946    0.773052300371
 H    1.119259620651   -0.143882919946    0.960052300371
 H    0.293259620651    1.364117080054    0.578052300371
 H    0.604259620651   -0.995882919946   -1.327947699629
 H   -1.820740379349    0.150117080054    0.292052300371
 H   -0.954740379349   -1.381882919946    0.451052300371
 H    1.702069620651    0.416547080054   -1.293147699629
 H   -0.034810379349    0.584697080054   -1.777237699629
 H   -1.108340379349   -0.331402919946    1.865212300371
