8
0 1 
 C   -0.432769994179   -0.620306480839   -0.034054321210
 C    0.429230005821    0.623693519161    0.030945678790
 H   -1.203769994179   -0.513306480839   -0.799054321210
 H    0.209230005821   -1.469306480839   -0.267054321210
 H   -0.901769994179   -0.789306480839    0.936945678790
 H    1.203230005821    0.445693519161    0.775945678790
 H   -0.179249994179    1.489473519161    0.331245678790
 H    0.914480005821    0.796423519161   -0.941014321210
