12
0 1 
 C    0.915395791875   -0.530956727461    0.190234012362
 C    1.873395791875    0.670043272539    0.322234012362
 C   -0.504604208125   -0.110956727461   -0.088765987638
 O   -0.764604208125    1.010043272539   -0.510765987638
 N   -1.432604208125   -1.029956727461    0.085234012362
 H    1.233395791875   -1.213956727461   -0.594765987638
 H    0.940395791875   -1.055956727461    1.146234012362
 H    1.496395791875    1.489043272539   -0.289765987638
 H   -2.398604208125   -0.799956727461   -0.085765987638
 H   -1.170604208125   -1.956956727461    0.389234012362
 H    2.878165791875    0.386383272539   -0.024135987638
 H    1.863355791875    1.096923272539    1.335974012362
