13
1 1 
 C   -0.460301929832   -1.143960695138    1.577607535572
 C    0.109698070168    0.276039304862   -0.387392464428
 N   -0.651301929832   -0.621960695138    0.215607535572
 N   -0.205301929832    0.675039304862   -1.603392464428
 N    1.183698070168    0.765039304862    0.198607535572
 H   -1.526301929832   -0.865960695138   -0.247392464428
 H   -1.061301929832   -0.544960695138    2.264607535572
 H    0.582698070168   -1.085960695138    1.896607535572
 H   -1.068301929832    0.330039304862   -2.021392464428
 H    0.317698070168    1.411039304862   -2.046392464428
 H    1.416698070168    0.472039304862    1.132607535572
 H    1.764698070168    1.440039304862   -0.272392464428
 H   -0.796067929832   -2.189300695138    1.644907535572
