8
0 1 
 C    0.491870970923   -0.475848391630   -0.330356916026
 C   -0.491129029077    0.476151608370    0.335643083974
 H    0.310870970923   -1.497848391630   -0.018356916026
 H    0.380870970923   -0.414848391630   -1.413356916026
 H    1.512870970923   -0.204848391630   -0.062356916026
 H   -1.490129029077    0.273151608370   -0.052356916026
 H   -0.494719029077    0.333361608370    1.426330083974
 H   -0.228599029077    1.507421608370    0.057156083974
