8
0 1 
 C    0.477724884501   -0.467190785982   -0.325587225593
 C   -0.485275115499    0.460809214018    0.322412774407
 H    1.465724884501   -0.127190785982   -0.043587225593
 H    0.356724884501   -1.488190785982    0.038412774407
 H    0.386724884501   -0.446190785982   -1.411587225593
 H   -0.256275115499    1.472809214018    0.000412774407
 H   -1.517625115499    0.206101214018    0.040668774407
 H   -0.345375115499    0.458646214018    1.413477774407
