7
-1 1 
 C    0.705175553215    0.661855500146   -1.067211360236
 C   -0.034824446785   -0.036144499854    0.071788639764
 O   -1.139824446785   -0.534144499854   -0.215211360236
 O    0.472175553215   -0.091144499854    1.221788639764
 H    0.010175553215    1.323855500146   -1.586211360236
 H    1.023175553215   -0.100144499854   -1.781211360236
 H    1.580965553215    1.249845500146   -0.755361360236
