11
0 1 
 C    0.008459551814   -0.029144455971   -0.632320675295
 C    0.215459551814   -1.166144455971    0.340679324705
 C   -0.223540448186    1.190855544029    0.237679324705
 H   -0.865540448186   -0.218144455971   -1.253320675295
 H    0.891459551814    0.129855544029   -1.248320675295
 H   -0.313540448186   -2.059144455971    0.004679324705
 H    1.282459551814   -1.367144455971    0.449679324705
 H   -0.810540448186    1.957855544029   -0.264320675295
 H    0.740459551814    1.605855544029    0.538679324705
 H   -0.195038448186   -0.788545455971    1.288788324705
 H   -0.734227448186    0.792199544029    1.126652324705
