11
0 1 
 C   -0.220810849656    0.417211041859   -0.472274761566
 C   -1.011810849656   -0.401788958141    0.552725238434
 C    1.214189150344    0.025211041859   -0.126274761566
 H   -0.384810849656    1.485211041859   -0.348274761566
 H   -0.467810849656    0.117211041859   -1.489274761566
 H   -0.981810849656    0.054211041859    1.548725238434
 H   -2.048810849656   -0.539788958141    0.253725238434
 H    1.409189150344    0.570211041859    0.797725238434
 H    2.007189150344    0.237211041859   -0.845274761566
 H   -0.463340849656   -1.355288958141    0.545255238434
 H    1.149679150344   -1.052788958141    0.083015238434
