8
0 1 
 C    0.253635860086   -0.684156672227    0.245837222252
 C   -0.256364139914    0.689843327773   -0.246162777748
 H    1.232635860086   -0.572156672227    0.714837222252
 H   -0.413364139914   -1.141156672227    0.966837222252
 H    0.340635860086   -1.387156672227   -0.582162777748
 H   -1.195364139914    0.547843327773   -0.785162777748
 H    0.497905860086    1.124335327773   -0.918693777748
 H   -0.429964139914    1.360581327773    0.608221222252
