8
0 1 
 C   -0.224805826309   -0.281687620636   -0.674265231261
 C    0.231194173691    0.283312379364    0.670734768739
 H    0.626194173691   -0.682687620636   -1.225265231261
 H   -0.940805826309   -1.081687620636   -0.493265231261
 H   -0.726805826309    0.480312379364   -1.271265231261
 H   -0.624805826309    0.738312379364    1.161734768739
 H    1.005454173691    1.054722379364    0.546452768739
 H    0.584704173691   -0.528317620636    1.323644768739
