8
0 1 
 C    0.077640784966    0.372291885400   -0.662489389338
 C   -0.081359215034   -0.370708114600    0.664510610662
 H    1.026640784966    0.908291885400   -0.684489389338
 H    0.061640784966   -0.335708114600   -1.488489389338
 H   -0.740359215034    1.083291885400   -0.788489389338
 H    0.727640784966   -1.088708114600    0.749510610662
 H    0.003230784966    0.333469885400    1.505330610662
 H   -1.034519215034   -0.919495114600    0.682560610662
