9
0 1 
 C   -0.862355299112    0.414991826314    1.084773048275
 C    0.069644700888    0.003991826314   -0.023226951725
 O    1.249644700888    0.333991826314    0.001773048275
 N   -0.422355299112   -0.716008173686   -1.002226951725
 H    0.177644700888   -0.994008173686   -1.760226951725
 H   -1.401355299112   -0.929008173686   -1.009226951725
 H   -1.721355299112   -0.253008173686    1.118773048275
 H   -1.226355299112    1.414991826314    0.847773048275
 H   -0.354325299112    0.420041826314    2.060413048275
