19
0 1 
 C   -2.633139802294    1.050614931935   -0.901841560023
 C   -0.187139802294    0.281614931935   -0.313841560023
 C   -1.619139802294    0.252614931935   -0.157841560023
 C    0.360860197706   -0.607385068065    0.640158439977
 C   -1.870139802294   -0.647385068065    0.810158439977
 C    0.686860197706    0.981614931935   -1.141841560023
 C    2.061860197706    0.791614931935   -0.992841560023
 C    2.566860197706   -0.102385068065   -0.048841560023
 C    1.727860197706   -0.815385068065    0.782158439977
 N   -0.697139802294   -1.179385068065    1.287158439977
 H    0.300860197706    1.655614931935   -1.887841560023
 H    2.739860197706    1.354614931935   -1.618841560023
 H    3.637860197706   -0.228385068065    0.035158439977
 H   -2.175139802294    2.008614931935   -1.138841560023
 H   -3.481139802294    1.251614931935   -0.243841560023
 H   -2.860139802294   -0.897385068065    1.156158439977
 H   -0.618139802294   -1.982385068065    1.907158439977
 H    2.105860197706   -1.505385068065    1.521158439977
 H   -2.998479802294    0.613914931935   -1.843021560023
