19
0 1 
 C    0.178370633012   -0.916946100507   -2.360472587725
 C    1.577370633012   -1.509946100507   -2.525472587725
 C   -0.033629366988   -0.336946100507   -0.978472587725
 C    0.122370633012   -1.133946100507    0.157527412275
 C   -0.370629366988    1.004053899493   -0.811472587725
 C   -0.059629366988   -0.605946100507    1.431527412275
 C   -0.551629366988    1.541053899493    0.459527412275
 C   -0.399629366988    0.735053899493    1.578527412275
 O   -0.585629366988    1.266053899493    2.818527412275
 H    0.015370633012   -0.149946100507   -3.118472587725
 H   -0.558629366988   -1.707946100507   -2.504472587725
 H    1.688370633012   -2.239946100507   -1.726472587725
 H    0.363370633012   -2.184946100507    0.053527412275
 H   -0.515629366988    1.628053899493   -1.677472587725
 H    0.060370633012   -1.244946100507    2.293527412275
 H   -0.810629366988    2.578053899493    0.589527412275
 H   -0.499629366988    0.615053899493    3.511527412275
 H    2.346646633012   -0.734624100507   -2.394742587725
 H    1.692305633012   -2.083177100507   -3.457242587725
