19
0 1 
 C   -1.003170405927   -0.242840840803   -2.298642909711
 C   -1.803170405927   -1.546840840803   -2.396642909711
 C   -0.369170405927   -0.009840840803   -0.959642909711
 C    0.829829594073   -0.631840840803   -0.624642909711
 C   -0.959170405927    0.847159159197   -0.036642909711
 C    1.415829594073   -0.421840840803    0.622357090289
 C   -0.373170405927    1.074159159197    1.208357090289
 C    0.810829594073    0.430159159197    1.543357090289
 O    1.384829594073    0.643159159197    2.764357090289
 H   -0.205170405927   -0.267840840803   -3.035642909711
 H   -1.647170405927    0.600159159197   -2.549642909711
 H   -2.625170405927   -1.528840840803   -1.680642909711
 H    1.319829594073   -1.282840840803   -1.336642909711
 H   -1.878170405927    1.357159159197   -0.286642909711
 H    2.344829594073   -0.917840840803    0.869357090289
 H   -0.837170405927    1.738159159197    1.922357090289
 H    2.168829594073    0.099159159197    2.894357090289
 H   -1.141926405927   -2.407210840803   -2.216302909711
 H   -2.195827405927   -1.623490840803   -3.421310909711
