15
0 1 
 C   -1.646942242984    1.459863802709    1.058299799398
 C    1.499057757016   -0.565136197291    0.442299799398
 C    0.573057757016    0.290863802709    1.039299799398
 C    1.229057757016   -1.120136197291   -0.792700200602
 C   -0.620942242984    0.576863802709    0.404299799398
 C    0.055057757016   -0.820136197291   -1.444700200602
 C   -0.877942242984   -0.000136197291   -0.844700200602
 H    2.420057757016   -0.812136197291    0.953299799398
 H    0.787057757016    0.717863802709    2.009299799398
 H    1.927057757016   -1.816136197291   -1.231700200602
 H   -0.153942242984   -1.265136197291   -2.406700200602
 H   -2.279942242984    1.919863802709    0.297299799398
 H   -1.115942242984    2.253863802709    1.571299799398
 H   -1.817942242984    0.192863802709   -1.341700200602
 H   -2.271652242984    0.927813802709    1.790869799398
