8
0 1 
 C   -0.719519454171    0.125986231610    0.205103856518
 C    0.719480545829   -0.123013768390   -0.202896143482
 H   -0.870519454171    1.185986231610    0.413103856518
 H   -1.395519454171   -0.163013768390   -0.596896143482
 H   -0.967519454171   -0.457013768390    1.092103856518
 H    0.858480545829   -1.200013768390   -0.287896143482
 H    1.430410545829    0.275366231610    0.535933856518
 H    0.945130545829    0.323296231610   -1.182636143482
