8
0 1 
 C   -0.651083502467    0.348995410537   -0.169525753324
 C    0.647916497533   -0.348004589463    0.176474246676
 H   -0.816083502467    1.200995410537    0.490474246676
 H   -0.601083502467    0.717995410537   -1.194525753324
 H   -1.486083502467   -0.346004589463   -0.087525753324
 H    1.466916497533    0.364995410537    0.110474246676
 H    0.818916497533   -1.111004589463   -0.562525753324
 H    0.655126497533   -0.838774589463    1.160894246676
