15
0 1 
 C    1.283754886470    1.048465598360    1.803817332970
 C   -1.552245113530    0.184465598360   -0.582182667030
 C   -0.968245113530   -0.791534401640   -1.365182667030
 C   -0.831245113530    0.780465598360    0.447817332970
 C    0.493754886470    0.406465598360    0.690817332970
 C    0.341754886470   -1.171534401640   -1.131182667030
 C    1.069754886470   -0.585534401640   -0.094182667030
 H   -2.583245113530    0.450465598360   -0.728182667030
 H   -1.541245113530   -1.270534401640   -2.146182667030
 H   -1.299245113530    1.543465598360    1.053817332970
 H    0.790754886470   -1.952534401640   -1.716182667030
 H    1.095754886470    2.118465598360    1.784817332970
 H    2.343754886470    0.898465598360    1.604817332970
 H    2.086754886470   -0.903534401640    0.088817332970
 H    1.044144886470    0.648635598360    2.800167332970
