8
0 1 
 C    0.247948648632   -0.561318997630    0.450361751773
 C   -0.242051351368    0.563681002370   -0.454638248227
 H    0.627948648632   -0.174318997630    1.394361751773
 H   -0.581051351368   -1.226318997630    0.675361751773
 H    1.018948648632   -1.138318997630   -0.053638248227
 H   -1.098051351368    1.018681002370    0.036361751773
 H    0.532208648632    1.335091002370   -0.578920248227
 H   -0.570221351368    0.157061002370   -1.422607248227
