15
0 1 
 C    1.435181642991    0.915390898599    0.580131786567
 C    1.637181642991    0.534390898599    2.049131786567
 C    0.247181642991    0.250390898599   -0.043868213433
 C   -1.053818357009    0.305390898599    0.320131786567
 C   -0.892818357009   -0.988609101401   -1.427868213433
 N    0.330181642991   -0.556609101401   -1.149868213433
 N   -1.747818357009   -0.486609101401   -0.549868213433
 H    1.336181642991    1.998390898599    0.486131786567
 H    2.310181642991    0.616390898599    0.002131786567
 H    1.490181642991   -0.541609101401    2.126131786567
 H   -1.453818357009    0.846390898599    1.157131786567
 H   -1.152818357009   -1.654609101401   -2.243868213433
 H   -2.748818357009   -0.662609101401   -0.528868213433
 H    0.893433642991    1.063494898599    2.663043086567
 H    2.675634642991    0.720295898599    2.360667706567
