8
0 1 
 C    0.546064383713    0.290269110603   -0.451389233897
 C   -0.542935616287   -0.288730889397    0.453610766103
 H    0.741064383713    1.330269110603   -0.197389233897
 H    1.469064383713   -0.278730889397   -0.341389233897
 H    0.251064383713    0.221269110603   -1.498389233897
 H   -0.855935616287   -1.250730889397    0.041610766103
 H   -1.409315616287    0.388869110603    0.469401766103
 H   -0.233195616287   -0.429260889397    1.499703766103
