18
0 1 
 C    0.281752673386    1.495121050327   -1.397868403203
 C    0.724752673386    0.789121050327   -2.677868403203
 C    0.038752673386    0.532121050327   -0.259868403203
 C    1.120752673386   -0.002878949673    0.468131596797
 C   -1.260247326614    0.120121050327    0.050131596797
 C    0.881752673386   -0.940878949673    1.472131596797
 C   -1.503247326614   -0.823878949673    1.072131596797
 C   -0.416247326614   -1.359878949673    1.777131596797
 H    1.054752673386    2.176121050327   -1.096868403203
 H   -0.625247326614    2.072121050327   -1.584868403203
 H    1.711752673386    0.351121050327   -2.514868403203
 H    2.134752673386    0.299121050327    0.245131596797
 H   -2.098247326614    0.511121050327   -0.510868403203
 H    1.715752673386   -1.352878949673    2.026131596797
 H   -2.512247326614   -1.144878949673    1.293131596797
 H   -0.597247326614   -2.103878949673    2.532131596797
 H    0.770762673386    1.496631050327   -3.518886403203
 H    0.016662673386   -0.030018949673   -2.871836403203
