7
-1 1 
 C   -1.220841825953   -0.773293576496    0.058002596306
 C    0.064158174047    0.047706423504   -0.007997403694
 O    1.141158174047   -0.535293576496    0.240002596306
 O    0.015158174047    1.266706423504   -0.292997403694
 H   -1.381841825953   -1.058293576496    1.099002596306
 H   -1.102841825953   -1.685293576496   -0.528997403694
 H   -2.094461825953   -0.225023576496   -0.324342403694
