16
0 1 
 C    0.186604504665    2.065450781321   -2.065079799256
 C    0.074604504665    1.006450781321   -1.002079799256
 C    0.247604504665    1.321450781321    0.348920200744
 C   -0.198395495335   -0.312549218679   -1.352079799256
 C    0.167604504665    0.331450781321    1.330920200744
 C   -0.252395495335   -1.299549218679   -0.381079799256
 C   -0.079395495335   -0.973549218679    0.952920200744
 O   -0.142395495335   -1.945549218679    1.892920200744
 H   -0.068395495335    3.032450781321   -1.629079799256
 H   -0.542395495335    1.862450781321   -2.848079799256
 H    0.437604504665    2.345450781321    0.640920200744
 H   -0.345395495335   -0.580549218679   -2.390079799256
 H    0.288604504665    0.561450781321    2.374920200744
 H   -0.421395495335   -2.330549218679   -0.650079799256
 H   -0.017395495335   -1.606549218679    2.785920200744
 H    1.187534504665    2.122564781321   -2.517709799256
