16
0 1 
 C   -0.758045923369    2.687106974679    0.919163799546
 C   -1.339045923369    0.431106974679   -0.054836200454
 C   -0.369045923369    1.313106974679    0.427163799546
 C   -0.990045923369   -0.849893025321   -0.496836200454
 C    0.952954076631    0.885106974679    0.494163799546
 C    0.337954076631   -1.261893025321   -0.433836200454
 C    1.311954076631   -0.401893025321    0.053163799546
 O    0.700954076631   -2.512893025321   -0.823836200454
 H   -2.374045923369    0.743106974679   -0.085836200454
 H   -1.736045923369   -1.533893025321   -0.872836200454
 H   -1.834045923369    2.826106974679    0.800163799546
 H   -0.247045923369    3.428106974679    0.304163799546
 H    1.712954076631    1.551106974679    0.877163799546
 H    2.342954076631   -0.722893025321    0.103163799546
 H    1.651954076631   -2.647893025321   -0.832836200454
 H   -0.480975923369    2.865836974679    1.968585799546
