12
0 1 
 C    0.053460135317   -0.672703989165   -0.847238996666
 C    0.281460135317    0.318296010835   -1.991238996666
 C   -0.050539864683   -0.011703989165    0.522761003334
 O    0.855460135317    0.662296010835    0.987761003334
 N   -1.090539864683   -0.321703989165    1.253761003334
 H   -0.836539864683   -1.270703989165   -1.051238996666
 H    0.901460135317   -1.357703989165   -0.800238996666
 H    1.063460135317    1.008296010835   -1.666238996666
 H   -1.151539864683    0.071296010835    2.180761003334
 H   -1.832539864683   -0.879703989165    0.862761003334
 H   -0.634949864683    0.905376010835   -2.151008996666
 H    0.680150135317   -0.158873989165   -2.898628996666
