11
0 1 
 C    0.139625988966   -0.326520303282    0.454757271611
 C   -0.287374011034   -0.893520303282   -0.895242728389
 C    0.158625988966    1.201479696718    0.467757271611
 H   -0.549374011034   -0.667520303282    1.225757271611
 H    1.128625988966   -0.718520303282    0.687757271611
 H   -0.343374011034   -1.979520303282   -0.808242728389
 H    0.569625988966    1.585479696718   -0.463242728389
 H   -0.869374011034    1.564479696718    0.551757271611
 H    0.461645988966   -0.642841303282   -1.660828728389
 H   -1.290294011034   -0.522282303282   -1.152806728389
 H    0.762995988966    1.601726696718    1.295128271611
