16
1 1 
 C   -0.712685693393   -1.292657967909    0.181680645568
 C   -1.331685693393   -2.243657967909   -0.826319354432
 C    0.495314306607    0.861342032091    0.156680645568
 N   -0.134685693393   -0.115657967909   -0.478319354432
 N    0.642314306607    0.819342032091    1.465680645568
 N    0.986314306607    1.880342032091   -0.519319354432
 H   -1.496685693393   -0.962657967909    0.866680645568
 H    0.045314306607   -1.815657967909    0.766680645568
 H   -0.588685693393   -2.486657967909   -1.590319354432
 H   -2.169685693393   -1.728657967909   -1.298319354432
 H   -0.262685693393   -0.014657967909   -1.476319354432
 H    0.255314306607    0.058342032091    1.994680645568
 H    1.177314306607    1.542342032091    1.925680645568
 H    0.873314306607    1.940342032091   -1.517319354432
 H    1.515314306607    2.586342032091   -0.027319354432
 H   -1.661837693393   -3.171985967909   -0.337231354432
