15
0 1 
 C    2.058831980634    1.271061136720    0.094155957150
 C   -1.501168019366    0.189061136720    0.705155957150
 C   -0.319168019366    0.906061136720    0.785155957150
 C   -1.554168019366   -0.944938863280   -0.090844042850
 C    0.792831980634    0.469061136720    0.055155957150
 C   -0.462168019366   -1.391938863280   -0.812844042850
 C    0.725831980634   -0.668938863280   -0.732844042850
 H   -2.372168019366    0.510061136720    1.257155957150
 H   -0.266168019366    1.798061136720    1.393155957150
 H   -2.481168019366   -1.498938863280   -0.144844042850
 H   -0.531168019366   -2.274938863280   -1.431844042850
 H    1.794831980634    2.328061136720    0.055155957150
 H    2.620831980634    1.053061136720   -0.815844042850
 H    1.587831980634   -0.993938863280   -1.297844042850
 H    2.733141980634    1.109544136720    0.948095957150
