11
0 1 
 C    0.344346723983   -0.100684986781    0.443452737702
 C    0.581346723983    0.957315013219   -0.640547262298
 C   -0.908653276017   -0.877684986781    0.215452737702
 H    1.179346723983   -0.772684986781    0.475452737702
 H    0.275346723983    0.408315013219    1.403452737702
 H    1.475346723983    1.502315013219   -0.334547262298
 H   -0.246653276017    1.668315013219   -0.579547262298
 H   -1.787653276017   -0.240684986781    0.341452737702
 H   -0.896653276017   -1.304684986781   -0.789547262298
 H    0.694986523983    0.675002013219   -1.697607262298
 H   -0.896961276017   -1.685194286781    0.962302737702
