8
0 1 
 C    0.141077135295   -0.032673287784   -0.753834097130
 C   -0.136922864705    0.030326712216    0.755165902870
 H    0.994077135295   -0.681673287784   -0.958834097130
 H   -0.729922864705   -0.433673287784   -1.273834097130
 H    0.326077135295    0.964326712216   -1.156834097130
 H   -0.890922864705    0.792326712216    0.929165902870
 H    0.788258135295    0.298406712216    1.286366902870
 H   -0.537030864705   -0.911773287784    1.158111902870
