6
0 1 
 C    0.005708408905    0.307363528658    0.653368513990
 O    0.006708408905   -0.340636471342   -0.591631486010
 H   -0.199291591095    0.317363528658   -1.265631486010
 H   -1.001291591095    0.652363528658    0.889368513990
 H    0.343238408905   -0.391750471342    1.432668513990
 H    0.682908408905    1.168446528658    0.553668513990
