18
0 1 
 C   -1.307459666690    1.370873733859    0.774919535894
 C   -2.170459666690    0.635873733859    1.786919535894
 C   -0.281459666690    0.487873733859    0.120919535894
 C    0.912540333310    0.201873733859    0.755919535894
 C   -0.538459666690   -0.089126266141   -1.128080464106
 C    1.838540333310   -0.654126266141    0.158919535894
 C    0.394540333310   -0.909126266141   -1.728080464106
 C    1.568540333310   -1.209126266141   -1.076080464106
 H   -1.940459666690    1.830873733859    0.013919535894
 H   -0.776459666690    2.164873733859    1.287919535894
 H   -1.509459666690    0.108873733859    2.477919535894
 H    1.126540333310    0.628873733859    1.725919535894
 H   -1.478459666690    0.103873733859   -1.625080464106
 H    2.759540333310   -0.901126266141    0.669919535894
 H    0.185540333310   -1.354126266141   -2.690080464106
 H    2.266540333310   -1.905126266141   -1.515080464106
 H   -2.832824666690   -0.079476266141    1.277469535894
 H   -2.757580666690    1.367233733859    2.361719535894
