8
0 1 
 C   -0.519758019801    0.516755609611    0.188794953996
 C    0.516241980199   -0.518244390389   -0.190205046004
 H   -0.998758019801    0.228755609611    1.122794953996
 H   -0.031758019801    1.478755609611    0.343794953996
 H   -1.238758019801    0.635755609611   -0.614205046004
 H    0.044241980199   -1.500244390389   -0.202205046004
 H    0.936512980199   -0.299098390389   -1.182855046004
 H    1.330383980199   -0.526197390389    0.549464953996
