18
0 1 
 C   -1.632045949049    1.008227662361   -0.670101931709
 C   -1.395045949049    1.474227662361   -2.087101931709
 C   -0.476045949049    0.270227662361   -0.064101931709
 C    0.516954050951    0.928227662361    0.647898068291
 C   -0.450045949049   -1.111772337639   -0.164101931709
 C    1.588954050951    0.205227662361    1.185898068291
 C    0.570954050951   -1.847772337639    0.401898068291
 C    1.594954050951   -1.207772337639    1.117898068291
 H   -1.844045949049    1.880227662361   -0.052101931709
 H   -2.511045949049    0.368227662361   -0.625101931709
 H   -0.570045949049    2.186227662361   -2.124101931709
 H    0.491954050951    2.005227662361    0.736898068291
 H   -1.236045949049   -1.627772337639   -0.695101931709
 H    2.392954050951    0.714227662361    1.693898068291
 H    0.575954050951   -2.924772337639    0.301898068291
 H    2.398954050951   -1.779772337639    1.560898068291
 H   -2.328442949049    1.920867662361   -2.460309931709
 H   -1.164090949049    0.605257662361   -2.720784931709
