8
0 1 
 C    0.517376231220   -0.564872704066   -0.009217350053
 C   -0.517623768780    0.563127295934    0.008782649947
 H    1.214376231220   -0.427872704066   -0.836217350053
 H    1.071376231220   -0.562872704066    0.930782649947
 H    0.018376231220   -1.529872704066   -0.120217350053
 H   -1.239623768780    0.381127295934    0.808782649947
 H   -1.031643768780    0.626811295934   -0.961647350053
 H   -0.029913768780    1.533461795934    0.183692649947
