11
0 1 
 C   -0.565280875742   -0.005654562732    0.059400487632
 C    0.382719124258    0.333345437268    1.220400487632
 C    0.140719124258   -0.322654562732   -1.275599512368
 H   -1.169280875742   -0.866654562732    0.349400487632
 H   -1.234280875742    0.840345437268   -0.091599512368
 H    0.970719124258   -0.561654562732    1.434400487632
 H    0.787719124258    0.514345437268   -1.541599512368
 H    0.773719124258   -1.201654562732   -1.134599512368
 H   -0.191530875742    0.593075437268    2.121940487632
 H    1.098819124258    1.118395437268    0.935970487632
 H   -0.537670875742   -0.496164562732   -2.123939512368
