8
0 1 
 C    0.339069253002    0.248037040566   -0.637857889670
 C   -0.334930746998   -0.251962959434    0.637142110330
 H    0.022069253002   -0.349962959434   -1.492857889670
 H    0.076069253002    1.287037040566   -0.814857889670
 H    1.423069253002    0.206037040566   -0.537857889670
 H   -1.412930746998   -0.213962959434    0.480142110330
 H   -0.044292746998   -1.284548959434    0.880652110330
 H   -0.113260746998    0.402146040566    1.493302110330
