8
0 1 
 C   -0.721095610076    0.019742170892    0.245354731942
 C    0.723904389924   -0.019257829108   -0.239645268058
 H   -0.759095610076   -0.258257829108    1.297354731942
 H   -1.142095610076    1.018742170892    0.143354731942
 H   -1.352095610076   -0.655257829108   -0.337645268058
 H    0.715904389924    0.070742170892   -1.321645268058
 H    1.169434389924   -0.993937829108    0.008354731942
 H    1.334504389924    0.812202170892    0.142244731942
