11
0 1 
 C    0.565534242430    0.165548367291   -0.095870630724
 C   -0.653465757570    1.030548367291   -0.465870630724
 C    0.126534242430   -1.183451632709    0.545129369276
 H    1.145534242430   -0.037451632709   -0.988870630724
 H    1.202534242430    0.707548367291    0.607129369276
 H   -1.313465757570    0.489548367291   -1.152870630724
 H   -0.511465757570   -1.005451632709    1.405129369276
 H   -0.430465757570   -1.768451632709   -0.188870630724
 H   -0.336935757570    1.997008367291   -0.885100630724
 H   -1.182225757570    1.248228367291    0.473829369276
 H    0.966854242430   -1.781541632709    0.927419369276
