16
0 1 
 C   -0.745913896883   -2.242061945937    1.755811021944
 C   -0.592913896883    0.228938054063    1.229811021944
 C   -0.378913896883   -1.090061945937    0.840811021944
 C   -0.225913896883    1.288938054063    0.409811021944
 C    0.356086103117    1.040938054063   -0.827188978056
 C    0.214086103117   -1.330061945937   -0.401188978056
 C    0.578086103117   -0.271061945937   -1.235188978056
 O    0.708086103117    2.084938054063   -1.629188978056
 H   -1.110913896883    0.451938054063    2.146811021944
 H   -0.400913896883    2.305938054063    0.730811021944
 H   -0.297913896883   -2.110061945937    2.733811021944
 H   -0.245913896883   -3.124061945937    1.349811021944
 H    0.393086103117   -2.347061945937   -0.727188978056
 H    0.683086103117    2.919938054063   -1.131188978056
 H    1.034086103117   -0.460061945937   -2.196188978056
 H   -1.821783896883   -2.454071945937    1.842771021944
