15
0 1 
 C    0.867943285017    1.827218528035   -1.397677217556
 C   -1.259056714983   -0.110781471965    1.059322782444
 C   -0.677056714983   -1.375781471965    1.057322782444
 C   -0.753056714983    0.909218528035    0.274322782444
 C    0.350943285017    0.694218528035   -0.531677217556
 C    0.433943285017   -1.608781471965    0.247322782444
 C    0.937943285017   -0.572781471965   -0.534677217556
 H   -2.117056714983    0.079218528035    1.681322782444
 H   -1.089056714983   -2.157781471965    1.682322782444
 H   -1.221056714983    1.880218528035    0.291322782444
 H    0.900943285017   -2.582781471965    0.227322782444
 H    0.914943285017    2.715218528035   -0.771677217556
 H    0.127943285017    1.991218528035   -2.184677217556
 H    1.797943285017   -0.757781471965   -1.151677217556
 H    1.856993285017    1.659988528035   -1.849137217556
