11
1 1 
 C    0.289794005963   -0.015436958880   -0.507660303771
 C   -0.356205994037    1.289563041120   -0.051660303771
 N    0.074794005963   -1.125436958880    0.466339696229
 H   -0.145205994037   -0.300436958880   -1.471660303771
 H    1.359794005963    0.154563041120   -0.669660303771
 H    0.352794005963    1.846563041120    0.564339696229
 H   -1.242205994037    1.072563041120    0.549339696229
 H   -0.906205994037   -1.310436958880    0.625339696229
 H    0.500794005963   -1.983436958880    0.135339696229
 H    0.498794005963   -0.910436958880    1.361339696229
 H   -0.667015994037    1.897473041120   -0.914130303771
