16
1 1 
 C    0.685102998710   -1.444648458360    0.126199649060
 C   -0.057897001290   -2.030648458360    1.329199649060
 C   -0.146897001290    0.840351541640   -0.371800350940
 N   -0.115897001290   -0.459648458360   -0.610800350940
 N    0.585102998710    1.360351541640    0.596199649060
 N   -0.914897001290    1.625351541640   -1.096800350940
 H    1.637102998710   -1.019648458360    0.449199649060
 H    0.923102998710   -2.265648458360   -0.551800350940
 H    0.591102998710   -2.757648458360    1.818199649060
 H   -0.953897001290   -2.547648458360    0.985199649060
 H   -0.763897001290   -0.836648458360   -1.303800350940
 H    1.278102998710    0.801351541640    1.060199649060
 H    0.571102998710    2.356351541640    0.759199649060
 H   -1.529897001290    1.177351541640   -1.770800350940
 H   -0.935897001290    2.621351541640   -0.958800350940
 H   -0.343297001290   -1.253208458360    2.053171649060
