8
0 1 
 C    0.656680028725    0.258902164681   -0.291966850269
 C   -0.660319971275   -0.258097835319    0.288033149731
 H    0.874680028725    1.251902164681    0.101033149731
 H    1.470680028725   -0.408097835319   -0.010966850269
 H    0.600680028725    0.294902164681   -1.379966850269
 H   -0.537319971275   -0.301097835319    1.369033149731
 H   -1.488649971275    0.424652164681    0.047781149731
 H   -0.876729971275   -1.271837835319   -0.080075850269
