7
-1 1 
 C   -1.371587630995   -0.134362627861    0.379752403858
 C    0.084412369005    0.012637372139   -0.009247596142
 O    0.947412369005   -0.719362627861    0.537752403858
 O    0.347412369005    0.842637372139   -0.901247596142
 H   -1.889587630995   -0.597362627861   -0.461247596142
 H   -1.816587630995    0.845637372139    0.542752403858
 H   -1.517457630995   -0.755372627861    1.275890403858
