8
0 1 
 C    0.678007183665   -0.322538785669    0.144444731485
 C   -0.676992816335    0.320461214331   -0.149555268515
 H    1.481007183665    0.406461214331    0.038444731485
 H    0.698007183665   -0.706538785669    1.163444731485
 H    0.850007183665   -1.158538785669   -0.535555268515
 H   -0.724992816335    1.263461214331    0.393444731485
 H   -0.811941816335    0.521081214331   -1.222653768515
 H   -1.504164816335   -0.301188785669    0.223725131485
