8
0 1 
 C   -0.014884968358   -0.526036912145    0.550569431267
 C    0.018115031642    0.528963087855   -0.550430568733
 H   -0.406884968358   -0.134036912145    1.487569431267
 H   -0.669884968358   -1.330036912145    0.223569431267
 H    0.987115031642   -0.918036912145    0.733569431267
 H   -0.998884968358    0.692963087855   -0.905430568733
 H    0.417595031642    1.470653087855   -0.145920568733
 H    0.632485031642    0.183653087855   -1.395010568733
