11
0 1 
 C   -0.008022509892    0.429576383550    0.334210642636
 C    0.501977490108    0.540576383550   -1.113789357364
 C   -0.489022509892   -0.946423616450    0.794210642636
 H    0.784977490108    0.761576383550    1.007210642636
 H   -0.841022509892    1.125576383550    0.449210642636
 H   -0.244022509892    0.127576383550   -1.794789357364
 H    0.349977490108   -1.636423616450    0.817210642636
 H    1.434567490108   -0.035173616450   -1.207498357364
 H    0.597667490108    1.603936383550   -1.378551357364
 H   -0.891082509892   -0.866013616450    1.814936642636
 H   -1.249792509892   -1.363593616450    0.118050642636
