11
0 1 
 C   -0.179887193747    0.519918763730    0.019733461991
 C    0.822112806253    0.052918763730   -1.043266538009
 C   -0.653887193747   -0.542081236270    1.021733461991
 H    0.278112806253    1.335918763730    0.581733461991
 H   -1.053887193747    0.929918763730   -0.488266538009
 H    1.709112806253   -0.336081236270   -0.541266538009
 H   -1.133887193747   -1.360081236270    0.493733461991
 H    1.139162806253    0.902388763730   -1.666066538009
 H    0.399312806253   -0.766081236270   -1.643676538009
 H    0.195182806253   -0.966981236270    1.577203461991
 H   -1.394257193747   -0.105211236270    1.708033461991
