19
0 1 
 C   -0.567287642447   -2.403979666208   -0.610118442500
 C   -1.890287642447   -2.769979666208    0.063881557500
 C   -0.142287642447   -0.964979666208   -0.283118442500
 C    0.975712357553   -0.696979666208    0.490881557500
 C   -0.874287642447    0.117020333792   -0.785118442500
 C    1.345712357553    0.612020333792    0.749881557500
 C   -0.490287642447    1.417020333792   -0.531118442500
 C    0.610712357553    1.646020333792    0.248881557500
 O    1.044712357553    2.896020333792    0.516881557500
 H    0.210712357553   -3.106979666208   -0.313118442500
 H   -0.692287642447   -2.462979666208   -1.690118442500
 H   -2.578287642447   -1.939979666208   -0.064118442500
 H    1.566712357553   -1.508979666208    0.876881557500
 H   -1.744287642447   -0.074979666208   -1.394118442500
 H    2.223712357553    0.807020333792    1.346881557500
 H   -1.028287642447    2.246020333792   -0.959118442500
 H    1.823712357553    2.904020333792    1.076881557500
 H   -1.724455642447   -2.932059666208    1.139162557500
 H   -2.346153642447   -3.650597666208   -0.412245442500
