12
0 1 
 C   -0.191546003838   -1.045708578022   -0.234144648744
 C   -1.289546003838   -1.304708578022    0.808855351256
 C    0.297453996162    0.391291421978   -0.216144648744
 O   -0.482546003838    1.325291421978   -0.354144648744
 N    1.594453996162    0.579291421978   -0.039144648744
 H    0.653453996162   -1.703708578022   -0.022144648744
 H   -0.550546003838   -1.263708578022   -1.239144648744
 H   -0.988546003838   -0.860708578022    1.758855351256
 H    1.950453996162    1.524291421978   -0.055144648744
 H    2.228453996162   -0.203708578022    0.021855351256
 H   -1.449276003838   -2.385518578022    0.936635351256
 H   -2.246166003838   -0.862178578022    0.494125351256
