11
0 1 
 C    0.201279240762   -0.510107099775    0.000518157919
 C   -1.125720759238   -0.165107099775   -0.680481842081
 C    0.934279240762    0.648892900225    0.678518157919
 H    0.001279240762   -1.278107099775    0.750518157919
 H    0.864279240762   -0.943107099775   -0.744481842081
 H   -0.934720759238    0.588892900225   -1.445481842081
 H    0.235279240762    1.212892900225    1.295518157919
 H   -1.842580759238    0.217012900225    0.061200807919
 H   -1.520590759238   -1.066537099775   -1.171908842081
 H    1.715869240762    0.254492900225    1.344527157919
 H    1.364049240762    1.327862900225   -0.072680122081
