9
0 1 
 C    0.985215402164    0.579411431666    0.905541820780
 C   -0.061784597836    0.041411431666   -0.056458179220
 O   -0.228784597836    0.520411431666   -1.182458179220
 N   -0.669784597836   -1.059588568334    0.310541820780
 H    1.754215402164   -0.189588568334    1.011541820780
 H    0.527215402164    0.724411431666    1.886541820780
 H   -1.316784597836   -1.499588568334   -0.326458179220
 H   -0.483784597836   -1.471588568334    1.214541820780
 H    1.461205402164    1.507310431666    0.555631820780
