9
0 1 
 C   -0.160739351156   -0.126885755698   -1.441286270006
 C    0.035260648844    0.050114244302    0.054713729994
 O    0.765260648844    0.932114244302    0.494713729994
 N   -0.602739351156   -0.795885755698    0.846713729994
 H   -1.207739351156   -0.361885755698   -1.639286270006
 H    0.441260648844   -0.981885755698   -1.752286270006
 H   -0.471739351156   -0.707885755698    1.843713729994
 H   -1.176739351156   -1.529885755698    0.459713729994
 H    0.138440648844    0.760634244302   -2.018176270006
