8
0 1 
 C    0.684193216350   -0.086562052098    0.353138314374
 C   -0.686806783650    0.086437947902   -0.354861685626
 H    1.188193216350   -0.960562052098   -0.054861685626
 H    1.302193216350    0.793437947902    0.180138314374
 H    0.539193216350   -0.214562052098    1.426138314374
 H   -1.159806783650    0.991437947902    0.020138314374
 H   -1.301266783650   -0.792682052098   -0.110781685626
 H   -0.537386783650    0.184407947902   -1.440251685626
