7
-1 1 
 C   -1.031551913829   -0.034411058464   -0.943355729623
 C    0.062448086171    0.006588941536    0.061644270377
 O   -0.144551913829   -0.571411058464    1.124644270377
 O    1.118448086171    0.603588941536   -0.235355729623
 H   -1.185551913829   -1.073411058464   -1.242355729623
 H   -0.758551913829    0.531588941536   -1.836355729623
 H   -1.973381913829    0.362408941536   -0.536555729623
