11
0 1 
 C   -0.258956932222    0.325490878036   -0.406054877773
 C    1.048043067778   -0.422509121964   -0.615054877773
 C   -0.800956932222    0.118490878036    0.995945122227
 H   -0.122956932222    1.392490878036   -0.595054877773
 H   -1.007956932222   -0.054509121964   -1.099054877773
 H    0.916043067778   -1.487509121964   -0.434054877773
 H    1.796043067778   -0.046509121964    0.081945122227
 H   -1.785956932222    0.597490878036    1.047945122227
 H   -0.950956932222   -0.954509121964    1.165945122227
 H    1.434164067778   -0.247991121964   -1.630164877773
 H   -0.137078932222    0.545374878036    1.762125122227
