11
0 1 
 C   -0.247386323587   -0.358411282759   -0.382560015901
 C   -0.952386323587    0.370588717241    0.746439984099
 C    1.179613676413   -0.045411282759   -0.401560015901
 H   -0.338386323587   -1.449411282759   -0.180560015901
 H   -0.753386323587   -0.144411282759   -1.311560015901
 H   -0.623386323587    1.409588717241    0.717439984099
 H    1.659613676413   -0.213411282759    0.469439984099
 H    1.718613676413   -0.513411282759   -1.234560015901
 H   -0.672856323587   -0.090211282759    1.705359984099
 H   -2.044466323587    0.350488717241    0.616219984099
 H    1.294283676413    1.046488717241   -0.333130015901
