11
0 1 
 C    0.216204051417   -0.506236463767    0.106521269853
 C   -0.101795948583   -0.036236463767   -1.308478730147
 C   -0.100795948583    0.510763536233    1.204521269853
 H   -0.344795948583   -1.418236463767    0.297521269853
 H    1.277204051417   -0.749236463767    0.170521269853
 H   -1.150795948583    0.269763536233   -1.338478730147
 H    0.532204051417    1.390763536233    1.080521269853
 H   -1.137795948583    0.834763536233    1.105521269853
 H    0.067064051417   -0.861626463767   -2.015738730147
 H    0.537694051417    0.829513536233   -1.535465730147
 H    0.057144051417    0.081853536233    2.205071269853
