14
0 1 
 C    0.261882804027    0.118565965219    0.209348963419
 C   -0.737117195973    1.276565965219    0.067348963419
 C   -0.342117195973   -1.127434034781    0.910348963419
 C    0.847882804027   -0.253434034781   -1.151651036581
 H    1.092882804027    0.459565965219    0.823348963419
 H   -1.650117195973    0.876565965219   -0.376651036581
 H   -0.328117195973    2.006565965219   -0.632651036581
 H   -1.129117195973   -1.542434034781    0.283348963419
 H    0.431882804027   -1.880434034781    1.049348963419
 H   -0.749117195973   -0.863434034781    1.879348963419
 H    1.319882804027    0.618565965219   -1.604651036581
 H    1.592882804027   -1.038434034781   -1.031651036581
 H    0.052882804027   -0.609434034781   -1.808651036581
 H   -0.997475195973    1.803068965219    0.997406963419
