15
0 1 
 C   -0.171575322991   -2.163746395040   -1.131405605071
 C   -0.440575322991   -0.710746395040    0.897594394929
 C   -0.048575322991   -0.838746395040   -0.431405605071
 C   -0.360575322991    0.527253604960    1.544594394929
 C    0.112424677009    1.649253604960    0.859594394929
 C    0.426424677009    0.286253604960   -1.115405605071
 C    0.516424677009    1.522253604960   -0.475405605071
 H   -0.819575322991   -1.568746395040    1.434594394929
 H   -0.677575322991    0.621253604960    2.574594394929
 H   -0.325575322991   -1.988746395040   -2.193405605071
 H   -1.064575322991   -2.671746395040   -0.767405605071
 H    0.171424677009    2.609253604960    1.354594394929
 H    0.731424677009    0.206253604960   -2.149405605071
 H    0.884424677009    2.385253604960   -1.012405605071
 H    0.695519677009   -2.828756395040   -1.005285605071
