16
0 1 
 C    0.437434948837    2.730652865457   -0.998224378175
 C    0.654434948837   -0.397347134543    1.147775621825
 C   -0.188565051163   -1.284347134543    0.465775621825
 C    0.853434948837    0.900652865457    0.689775621825
 C    0.214434948837    1.332652865457   -0.480224378175
 C   -0.828565051163   -0.867347134543   -0.707224378175
 C   -0.618565051163    0.442652865457   -1.162224378175
 O   -0.428565051163   -2.538347134543    0.973775621825
 H    1.138434948837   -0.727347134543    2.055775621825
 H    1.502434948837    1.570652865457    1.233775621825
 H   -1.485565051163   -1.537347134543   -1.243224378175
 H   -1.044565051163   -3.036347134543    0.424775621825
 H    0.513434948837    2.690652865457   -2.086224378175
 H    1.392434948837    3.098652865457   -0.621224378175
 H   -1.104565051163    0.759652865457   -2.071224378175
 H   -0.350116051163    3.442243865457   -0.709431378175
