12
0 1 
 C   -1.977451450085    0.248439660322   -0.996110428283
 C    0.982548549915    0.319439660322    1.129889571717
 C   -0.616451450085    0.061439660322   -0.369110428283
 C    0.441548549915   -0.745560339678   -0.713110428283
 N   -0.254451450085    0.681439660322    0.805889571717
 N    1.444548549915   -0.519560339678    0.210889571717
 H    1.524548549915    0.666439660322    1.999889571717
 H    2.378548549915   -0.919560339678    0.189889571717
 H    0.488548549915   -1.396560339678   -1.574110428283
 H   -2.718451450085    0.266439660322   -0.197110428283
 H   -2.178451450085   -0.618560339678   -1.620110428283
 H   -2.101691450085    1.136659660322   -1.633000428283
