8
0 1 
 C    0.137539219839   -0.092835048725   -0.746343774371
 C   -0.147460780161    0.086164951275    0.744656225629
 H   -0.094460780161    0.822164951275   -1.288343774371
 H    1.194539219839   -0.316835048725   -0.871343774371
 H   -0.441460780161   -0.916835048725   -1.157343774371
 H    0.504539219839    0.890164951275    1.085656225629
 H   -1.178140780161    0.415894951275    0.942066225629
 H    0.133118219839   -0.815135048725    1.309402225629
