9
0 1 
 C   -0.863474033205    1.211237565867   -0.066086731813
 C    0.096525966795   -1.151762434133    0.904913268187
 S    0.392525966795   -0.028762434133   -0.426086731813
 H   -1.792474033205    0.709237565867    0.207913268187
 H   -1.054474033205    1.813237565867   -0.943086731813
 H    0.689525966795   -2.045762434133    0.732913268187
 H   -0.957474033205   -1.438762434133    0.903913268187
 H    0.329525966795   -0.682762434133    1.859913268187
 H   -0.535138033205    1.849106565867    0.767773268187
