8
0 1 
 C   -0.080729408753   -0.744873514344    0.151806972472
 C    0.077270591247    0.745126485656   -0.157193027528
 H    0.635270591247   -1.332873514344   -0.424193027528
 H    0.108270591247   -0.911873514344    1.212806972472
 H   -1.093729408753   -1.077873514344   -0.060193027528
 H    1.010270591247    1.081126485656    0.296806972472
 H    0.132830591247    0.918221485656   -1.242067027528
 H   -0.751729408753    1.320260485656    0.280969972472
