8
0 1 
 C    0.634206902289    0.379238430527   -0.209157645872
 C   -0.630793097711   -0.381761569473    0.208842354128
 H    0.347206902289    1.284238430527   -0.744157645872
 H    1.213206902289    0.662238430527    0.665842354128
 H    1.239206902289   -0.240761569473   -0.870157645872
 H   -1.202793097711    0.249238430527    0.880842354128
 H   -0.386514097711   -1.312759569473    0.741352354128
 H   -1.250961097711   -0.612151569473   -0.669967645872
