16
1 1 
 C   -1.471932683234   -0.265077405066   -0.032621384830
 C   -2.488932683234   -0.308077405066    1.055378615170
 C    0.954067316766    0.156922594934   -0.263621384830
 N   -0.169932683234    0.219922594934    0.429378615170
 N    1.005067316766   -0.467077405066   -1.419621384830
 N    2.066067316766    0.652922594934    0.256378615170
 H   -1.372932683234   -1.274077405066   -0.437621384830
 H   -1.833932683234    0.394922594934   -0.824621384830
 H   -2.560932683234    0.679922594934    1.511378615170
 H   -2.137932683234   -1.007077405066    1.814378615170
 H   -0.137932683234    0.694922594934    1.320378615170
 H    0.171067316766   -0.847077405066   -1.831621384830
 H    1.888067316766   -0.494077405066   -1.918621384830
 H    2.060067316766    1.137922594934    1.140378615170
 H    2.902067316766    0.633922594934   -0.312621384830
 H   -3.486492683234   -0.601177405066    0.696257615170
