8
0 1 
 C    0.008897926937   -0.585975261091   -0.492157388095
 C   -0.010102073063    0.584024738909    0.495842611905
 H   -0.960102073063   -0.697975261091   -0.978157388095
 H    0.747897926937   -0.384975261091   -1.266157388095
 H    0.266897926937   -1.506975261091    0.029842611905
 H   -0.307102073063    1.483024738909   -0.045157388095
 H   -0.729562073063    0.388782838909    1.304701611905
 H    0.996307926937    0.741342738909    0.911048611905
