8
0 1 
 C   -0.342386913776    0.282738252262    0.614092681394
 C    0.345613086224   -0.281261747738   -0.612907318606
 H   -0.903386913776    1.175738252262    0.353092681394
 H   -1.042386913776   -0.451261747738    1.013092681394
 H    0.401613086224    0.525738252262    1.372092681394
 H   -0.416386913776   -0.528261747738   -1.347907318606
 H    1.029750086224    0.460188252262   -1.051327318606
 H    0.892384086224   -1.199721747738   -0.353157318606
