9
0 1 
 C    1.104426424094    0.748045700539    0.576424022351
 C   -0.012573575906   -0.063954299461   -0.047575977649
 O    0.232426424094   -0.985954299461   -0.823575977649
 N   -1.249573575906    0.273045700539    0.279424022351
 H   -2.006573575906   -0.246954299461   -0.136575977649
 H   -1.439573575906    1.058045700539    0.899424022351
 H    0.691426424094    1.495045700539    1.256424022351
 H    1.594426424094    1.281045700539   -0.239575977649
 H    1.833026424094    0.121475700539    1.111734022351
