7
-1 1 
 C   -0.752119304040   -0.506169893296   -1.135828739107
 C    0.024880695960    0.035830106704    0.068171260893
 O   -0.307119304040    1.103830106704    0.636171260893
 O    1.023880695960   -0.625169893296    0.440171260893
 H   -1.287119304040   -1.413169893296   -0.857828739107
 H   -0.019119304040   -0.810169893296   -1.886828739107
 H   -1.410179304040    0.226910106704   -1.625264739107
