8
0 1 
 C    0.485249124575    0.519215902014   -0.267798934898
 C   -0.488750875425   -0.519784097986    0.265201065102
 H   -0.019750875425    1.221215902014   -0.926798934898
 H    0.927249124575    1.065215902014    0.566201065102
 H    1.282249124575    0.020215902014   -0.818798934898
 H    0.061249124575   -1.207784097986    0.909201065102
 H   -0.949390875425   -1.081284097986   -0.560951934898
 H   -1.259910875425   -0.010814097986    0.862080065102
