8
0 1 
 C    0.003858515469   -0.551681427855    0.525068015835
 C   -0.005141484531    0.545318572145   -0.531931984165
 H    0.673858515469   -1.363681427855    0.245068015835
 H    0.353858515469   -0.126681427855    1.464068015835
 H   -1.007141484531   -0.932681427855    0.664068015835
 H    1.015858515469    0.895318572145   -0.693931984165
 H   -0.576141484531    1.370318572145   -0.106931984165
 H   -0.445016484531    0.233168572145   -1.490611984165
