8
0 1 
 C   -0.604011175124    0.160458698706    0.429856793352
 C    0.602988824876   -0.162541301294   -0.433143206648
 H   -0.918011175124   -0.729541301294    0.978856793352
 H   -0.341011175124    0.940458698706    1.144856793352
 H   -1.442011175124    0.517458698706   -0.167143206648
 H    0.921988824876    0.741458698706   -0.952143206648
 H    0.361408824876   -0.940713301294   -1.172123206648
 H    1.429808824876   -0.504324301294    0.206826793352
