11
0 1 
 C    0.002588053209    0.536143925894   -0.227171252544
 C   -1.186411946791   -0.417856074106   -0.301171252544
 C    1.179588053209   -0.079856074106    0.516828747456
 H    0.325588053209    0.781143925894   -1.239171252544
 H   -0.299411946791    1.463143925894    0.264828747456
 H   -0.810411946791   -1.405856074106   -0.582171252544
 H    0.892588053209   -0.326856074106    1.536828747456
 H    1.473588053209   -0.995856074106    0.002828747456
 H   -1.894614946791   -0.081479074106   -1.072727252544
 H   -1.673178946791   -0.501384074106    0.681723067456
 H    2.036289053209    0.609542925894    0.544952787456
