8
0 1 
 C   -0.504292097207    0.144690338448   -0.549178765634
 C    0.506707902793   -0.140309661552    0.550821234366
 H   -1.051292097207   -0.767309661552   -0.790178765634
 H   -1.209292097207    0.890690338448   -0.234178765634
 H   -0.007292097207    0.496690338448   -1.455178765634
 H    0.004707902793   -0.688309661552    1.347821234366
 H    0.924160902793    0.787842338448    0.968274234366
 H    1.310242902793   -0.771763661552    0.143884234366
