8
0 1 
 C    0.573398614074   -0.414005954115    0.292166824798
 C   -0.577601385926    0.410994045885   -0.293833175202
 H    0.837398614074   -1.249005954115   -0.349833175202
 H    1.449398614074    0.224994045885    0.416166824798
 H    0.285398614074   -0.808005954115    1.267166824798
 H   -0.201601385926    0.955994045885   -1.156833175202
 H   -1.409991385926   -0.235057954115   -0.609663175202
 H   -0.910561385926    1.146944045885    0.452836824798
