10
-1 1 
 C    0.690238394779    0.811929165746   -0.002442693501
 C    1.969238394779    0.027929165746   -0.318442693501
 C   -0.552761605221   -0.047070834254    0.085557306499
 O   -0.474761605221   -1.276070834254   -0.161442693501
 O   -1.621761605221    0.529929165746    0.403557306499
 H    0.812238394779    1.341929165746    0.941557306499
 H    0.545238394779    1.558929165746   -0.787442693501
 H    1.833238394779   -0.538070834254   -1.240442693501
 H    2.172238394779   -0.665070834254    0.498557306499
 H    2.826094394779    0.704508165746   -0.452752693501
