8
0 1 
 C   -0.527355486656   -0.146767175743   -0.532194083623
 C    0.528644513344    0.149232824257    0.529805916377
 H   -0.096355486656   -0.072767175743   -1.531194083623
 H   -0.918355486656   -1.151767175743   -0.383194083623
 H   -1.351355486656    0.559232824257   -0.442194083623
 H    0.113644513344   -0.109767175743    1.504805916377
 H    0.815226513344    1.211229824257    0.535525916377
 H    1.421847213344   -0.465519175743    0.344685916377
