7
-1 1 
 C   -0.612299151492   -1.036807177698   -0.780513131618
 C    0.035700848508    0.052192822302    0.053486868382
 O   -0.161299151492    0.094192822302    1.289486868382
 O    0.739700848508    0.892192822302   -0.554513131618
 H    0.155700848508   -1.569807177698   -1.337513131618
 H   -1.311299151492   -0.575807177698   -1.482513131618
 H   -1.158599151492   -1.785407177698   -0.187963131618
