11
0 1 
 C    0.241969927761    0.386827535517    0.350837752358
 C    0.964969927761   -0.252172464483   -0.842162247642
 C   -1.194030072239   -0.113172464483    0.516837752358
 H    0.813969927761    0.181827535517    1.221837752358
 H    0.217969927761    1.469827535517    0.213837752358
 H    0.435969927761    0.006827535517   -1.761162247642
 H    0.977969927761   -1.337172464483   -0.723162247642
 H   -1.791030072239    0.223827535517   -0.338162247642
 H   -1.177030072239   -1.201172464483    0.507837752358
 H    1.993183927761    0.136747535517   -0.881126247642
 H   -1.624718072239    0.263497535517    1.456317752358
