8
0 1 
 C    0.497573137154    0.533779362863    0.205063393765
 C   -0.500426862846   -0.534220637137   -0.204936606235
 H    0.048573137154    1.215779362863    0.928063393765
 H    1.373573137154    0.064779362863    0.655063393765
 H    0.818573137154    1.094779362863   -0.672936606235
 H   -0.028426862846   -1.184220637137   -0.938936606235
 H   -1.387056862846   -0.053420637137   -0.643926606235
 H   -0.791256862846   -1.132442637137    0.671163393765
