8
0 1 
 C   -0.213090399624    0.732726512676    0.017446365926
 C    0.217909600376   -0.731273487324   -0.023553634074
 H   -0.492090399624    1.080726512676   -0.974553634074
 H   -1.079090399624    0.833726512676    0.672446365926
 H    0.596909600376    1.350726512676    0.407446365926
 H   -0.590090399624   -1.331273487324   -0.445553634074
 H    0.364909600376   -1.050273487324    1.008446365926
 H    1.142070600376   -0.900933487324   -0.595513634074
