12
0 1 
 C    1.395828418392   -1.620963583253    0.586075556709
 C   -0.317171581608   -0.435963583253   -0.978924443291
 C    0.426828418392   -0.550963583253    0.158075556709
 C   -0.688171581608    1.342036416747    0.260075556709
 N   -1.000171581608    0.758036416747   -0.891924443291
 N    0.170828418392    0.573036416747    0.917075556709
 H   -0.344171581608   -1.147963583253   -1.790924443291
 H   -1.651171581608    1.136036416747   -1.571924443291
 H    1.003828418392   -2.584963583253    0.264075556709
 H    1.454828418392   -1.633963583253    1.675075556709
 H   -1.076171581608    2.293036416747    0.604075556709
 H    2.404428418392   -1.484263583253    0.168894556709
