22
0 1 
 C   -0.047280345258    2.094884590937   -1.617407967200
 C   -0.828280345258    1.790884590937   -2.903407967200
 C   -0.397280345258    1.187884590937   -0.442407967200
 C   -1.462280345258    1.297884590937    0.405592032800
 C    0.313719654742    0.006884590937   -0.021407967200
 C   -0.394280345258   -0.560115409063    1.078592032800
 C    1.446719654742   -0.666115409063   -0.512407967200
 C    0.043719654742   -1.714115409063    1.722592032800
 C    1.893719654742   -1.808115409063    0.138592032800
 C    1.195719654742   -2.324115409063    1.245592032800
 N   -1.459280345258    0.263884590937    1.328592032800
 H    1.013719654742    1.985884590937   -1.834407967200
 H   -0.226280345258    3.130884590937   -1.327407967200
 H   -0.399280345258    2.394884590937   -3.705407967200
 H   -2.212280345258    2.063884590937    0.374592032800
 H   -2.151280345258    0.146884590937    2.061592032800
 H    1.986719654742   -0.266115409063   -1.359407967200
 H   -0.493280345258   -2.115115409063    2.571592032800
 H    2.785719654742   -2.315115409063   -0.200407967200
 H    1.562719654742   -3.218115409063    1.735592032800
 H   -1.891270345258    2.057939990937   -2.809900967200
 H   -0.705440345258    0.732767590937   -3.177814967200
