14
0 1 
 C    0.215714003625    0.095722870463   -0.291267480714
 C   -1.001285996375   -0.662277129537   -0.835267480714
 C   -0.192285996375    1.366722870463    0.410732519286
 C    1.004714003625   -0.779277129537    0.672732519286
 H    0.815714003625    0.392722870463   -1.125267480714
 H   -1.729285996375   -0.791277129537   -0.035267480714
 H   -0.657285996375   -1.662277129537   -1.087267480714
 H   -1.007285996375    1.178722870463    1.110732519286
 H    0.656714003625    1.772722870463    0.961732519286
 H   -0.499285996375    2.116722870463   -0.309267480714
 H    1.372714003625   -1.664277129537    0.158732519286
 H    1.859714003625   -0.228277129537    1.063732519286
 H    0.377714003625   -1.093277129537    1.503732519286
 H   -1.509195996375   -0.270257129537   -1.728766480714
