8
0 1 
 C    0.212823771105    0.724402271052    0.079199701386
 C   -0.219176228895   -0.722597728948   -0.079800298614
 H   -0.215176228895    1.151402271052    0.984199701386
 H    1.299823771105    0.770402271052    0.161199701386
 H   -0.102176228895    1.307402271052   -0.786800298614
 H    0.168823771105   -1.291597728948    0.750199701386
 H   -1.312682228895   -0.839677728948   -0.102928298614
 H    0.237024771105   -1.119417728948   -0.998719298614
