13
1 1 
 C    1.779276674126    0.614627768433    0.510300401774
 C   -0.437723325874   -0.137372231567   -0.144699598226
 N    0.802276674126    0.164627768433   -0.458699598226
 N   -0.877723325874    0.057627768433    1.085300401774
 N   -1.236723325874   -0.655372231567   -1.039699598226
 H    1.100276674126    0.072627768433   -1.423699598226
 H   -0.244723325874    0.363627768433    1.809300401774
 H   -1.793723325874   -0.271372231567    1.370300401774
 H   -0.809723325874   -1.086372231567   -1.853699598226
 H   -2.201723325874   -0.850372231567   -0.798699598226
 H    2.731276674126    0.170627768433    0.222300401774
 H    1.557276674126    0.231627768433    1.508300401774
 H    1.919166674126    1.704880768433    0.552490401774
