7
-1 1 
 C    1.053909685556   -0.360708872765   -0.890872902469
 C   -0.062090314444    0.016291127235    0.031127097531
 O    0.107909685556   -0.177708872765    1.267127097531
 O   -1.108090314444    0.521291127235   -0.411872902469
 H    1.452909685556   -1.338708872765   -0.612872902469
 H    1.864909685556    0.361291127235   -0.776872902469
 H    0.746349685556   -0.374558872765   -1.946912902469
