11
0 1 
 C    0.298512284212   -0.436326375850   -0.182998224414
 C   -0.719487715788    0.301673624150   -1.052998224414
 C    0.418512284212    0.102673624150    1.228001775586
 H    0.123512284212   -1.502326375850   -0.184998224414
 H    1.279512284212   -0.295326375850   -0.637998224414
 H   -0.771487715788    1.345673624150   -0.729998224414
 H    1.400512284212   -0.190326375850    1.584001775586
 H    0.392512284212    1.192673624150    1.216001775586
 H   -1.705437715788   -0.184899375850   -1.019104224414
 H   -0.398377715788    0.302393624150   -2.105085224414
 H   -0.291417715788   -0.287092375850    1.972371775586
