13
1 1 
 C    0.324509097930    0.239441668350   -1.942105738796
 C   -0.086490902070   -0.066558331650    0.474894261204
 N    0.798509097930    0.867441668350    0.763894261204
 N   -0.331490902070   -0.380558331650   -0.786105738796
 N   -0.726490902070   -0.684558331650    1.446894261204
 H    1.210509097930    1.426441668350    0.025894261204
 H    0.999509097930    1.096441668350    1.722894261204
 H   -1.050490902070   -1.085558331650   -0.962105738796
 H   -1.330490902070   -1.472558331650    1.197894261204
 H   -0.542490902070   -0.473558331650    2.411894261204
 H    1.403509097930    0.082441668350   -1.883105738796
 H    0.125509097930    1.310441668350   -1.956105738796
 H   -0.044400902070   -0.196018331650   -2.882465738796
