9
0 1 
 C   -0.121627418907   -0.193902235522    1.432225281371
 C    0.013372581093   -0.040902235522   -0.066774718629
 O    0.217372581093   -1.019902235522   -0.764774718629
 N   -0.092627418907    1.182097764478   -0.572774718629
 H    0.110372581093   -1.219902235522    1.711225281371
 H   -1.159627418907    0.002097764478    1.704225281371
 H   -0.034627418907    1.292097764478   -1.574774718629
 H   -0.309627418907    1.971097764478    0.017225281371
 H    0.519618681093    0.512493764478    1.979775281371
