11
0 1 
 C    0.565398676691   -0.074771683336   -0.055054441280
 C   -0.264601323309    0.783228316664   -0.994054441280
 C   -0.262601323309   -0.718771683336    1.041945558720
 H    1.046398676691   -0.855771683336   -0.635054441280
 H    1.323398676691    0.554228316664    0.409945558720
 H   -0.883601323309    1.454228316664   -0.397054441280
 H   -0.732601323309    0.076228316664    1.625945558720
 H   -1.068601323309   -1.314771683336    0.617945558720
 H   -0.905703323309    0.148914316664   -1.623843441280
 H    0.403470676691    1.409410316664   -1.603624441280
 H    0.362445676691   -1.349646683336    1.691032558720
