11
0 1 
 C    0.145857352238   -0.334941704301    0.426219591007
 C   -1.291142647762   -0.229941704301   -0.085780408993
 C    1.152857352238    0.547058295699   -0.312780408993
 H    0.147857352238   -0.082941704301    1.484219591007
 H    0.474857352238   -1.369941704301    0.347219591007
 H   -1.297142647762   -0.365941704301   -1.167780408993
 H    0.725857352238    1.535058295699   -0.459780408993
 H   -1.701462647762    0.761160595699    0.157846591007
 H   -1.890992647762   -1.050139704301    0.335479591007
 H    2.075574352238    0.669076395699    0.273483591007
 H    1.375292352238    0.115910095699   -1.300016408993
