8
0 1 
 C    0.245414787843   -0.394231605264    0.603134412048
 C   -0.242585212157    0.393768394736   -0.606865587952
 H    1.058414787843    0.129768394736    1.106134412048
 H   -0.575585212157   -0.496231605264    1.316134412048
 H    0.576414787843   -1.387231605264    0.294134412048
 H   -0.414585212157    1.416768394736   -0.291865587952
 H    0.514884787843    0.360741394736   -1.403825587952
 H   -1.193235212157   -0.018299605264   -0.976285587952
