18
0 1 
 C   -0.920224654668    1.814676834527   -0.153285570960
 C   -1.396224654668    2.268676834527    1.231714429040
 C   -0.225224654668    0.477676834527   -0.170285570960
 C    0.959775345332    0.280676834527    0.541714429040
 C   -0.736224654668   -0.565323165473   -0.935285570960
 C    1.602775345332   -0.952323165473    0.507714429040
 C   -0.094224654668   -1.800323165473   -0.962285570960
 C    1.070775345332   -1.991323165473   -0.241285570960
 H   -1.765224654668    1.809676834527   -0.844285570960
 H   -0.205224654668    2.546676834527   -0.528285570960
 H   -0.642224654668    2.011676834527    1.976714429040
 H    1.389775345332    1.090676834527    1.114714429040
 H   -1.635224654668   -0.420323165473   -1.515285570960
 H    2.527775345332   -1.089323165473    1.036714429040
 H   -0.500224654668   -2.612323165473   -1.547285570960
 H    1.569775345332   -2.950323165473   -0.273285570960
 H   -2.358744654668    1.816436834527    1.512854429040
 H   -1.490554654668    3.364606834527    1.225954429040
