6
0 1 
 C    0.429565484762   -0.187797073856    0.564980751880
 O   -0.370434515238    0.214202926144   -0.547019248120
 H   -1.175434515238   -0.348797073856   -0.577019248120
 H    1.370565484762    0.360202926144    0.512980751880
 H   -0.091214515238    0.087654926144    1.493914451880
 H    0.660385484762   -1.262549073856    0.524587451880
