11
0 1 
 C   -0.234986922083    0.199807878863   -0.441924187172
 C   -0.259986922083   -1.299192121137   -0.139924187172
 C    0.482013077917    1.106807878863    0.562075812828
 H    0.254013077917    0.326807878863   -1.406924187172
 H   -1.251986922083    0.555807878863   -0.558924187172
 H   -0.753986922083   -1.444192121137    0.819075812828
 H    1.511013077917    0.771807878863    0.674075812828
 H    0.764096077917   -1.699789121137   -0.112063187172
 H   -0.870044922083   -1.809264121137   -0.899961187172
 H    0.503699077917    2.134715878863    0.171007812828
 H   -0.002480922083    1.075713878863    1.549141812828
