19
0 1 
 C   -0.915230022650    1.377882208094   -1.892558962611
 C    0.179769977350    1.753882208094   -2.890558962611
 C   -0.447230022650    0.542882208094   -0.738558962611
 C   -0.722230022650    0.946882208094    0.557441037389
 C    0.221769977350   -0.654117791906   -0.925558962611
 C   -0.302230022650    0.197882208094    1.643441037389
 C    0.638769977350   -1.413117791906    0.169441037389
 C    0.387769977350   -0.977117791906    1.448441037389
 O    0.806769977350   -1.731117791906    2.507441037389
 H   -1.369230022650    2.289882208094   -1.510558962611
 H   -1.692230022650    0.819882208094   -2.415558962611
 H    0.598769977350    0.836882208094   -3.296558962611
 H   -1.249230022650    1.875882208094    0.733441037389
 H    0.421769977350   -1.009117791906   -1.926558962611
 H   -0.514230022650    0.540882208094    2.645441037389
 H    1.166769977350   -2.342117791906    0.022441037389
 H    0.557769977350   -1.339117791906    3.351441037389
 H    0.964241977350    2.338657208094   -2.387923962611
 H   -0.271681022650    2.327073208094   -3.713750962611
