9
0 1 
 C    0.334179022866   -0.314629719120    0.317663160631
 C   -1.098820977134    0.027370280880    0.669663160631
 O    0.724179022866    0.304370280880   -0.866336839369
 H    1.010179022866   -0.011629719120    1.114663160631
 H    0.428179022866   -1.394629719120    0.192663160631
 H   -1.360820977134   -0.479629719120    1.597663160631
 H    0.519179022866   -0.321629719120   -1.602336839369
 H   -1.786240977134   -0.316719719120   -0.117136839369
 H   -1.199260977134    1.114010280880    0.807953160631
