10
-1 1 
 C    0.636939209776   -0.818006984540   -0.281317031089
 C   -0.369060790224   -1.968006984540   -0.108317031089
 C    0.057939209776    0.560993015460    0.037682968911
 O   -0.947060790224    0.662993015460    0.779682968911
 O    0.655939209776    1.549993015460   -0.443317031089
 H    1.492939209776   -0.995006984540    0.370682968911
 H    1.008939209776   -0.825006984540   -1.303317031089
 H    0.192939209776   -2.891006984540   -0.255317031089
 H   -1.163420790224   -1.903130984540   -0.866464031089
 H   -0.790540790224   -2.014598984540    0.906664968911
