13
1 1 
 C   -0.797317197265    1.295626167000    1.281151748741
 C    0.203682802735   -0.306373833000   -0.298848251259
 N    1.174682802735   -0.636373833000   -1.121848251259
 N    0.200682802735    0.879626167000    0.289151748741
 N   -0.764317197265   -1.183373833000   -0.099848251259
 H    1.937682802735   -0.004373833000   -1.303848251259
 H    1.225682802735   -1.561373833000   -1.517848251259
 H    0.901682802735    1.553626167000    0.014151748741
 H   -1.700317197265   -0.825373833000   -0.036848251259
 H   -0.673317197265   -2.099373833000   -0.515848251259
 H   -1.440317197265    2.072626167000    0.867151748741
 H   -0.263317197265    1.703626167000    2.141151748741
 H   -1.409597197265    0.444136167000    1.612921748741
