7
-1 1 
 C    1.069418847688   -0.250965967888    0.957658070191
 C   -0.065581152312    0.016034032112   -0.047341929809
 O   -1.240581152312    0.130034032112    0.356658070191
 O    0.227418847688    0.107034032112   -1.264341929809
 H    1.834418847688    0.517034032112    0.832658070191
 H    1.528418847688   -1.211965967888    0.719658070191
 H    0.764259847688   -0.270215967888    2.014307070191
