8
0 1 
 C    0.389503002448    0.418241606430    0.507183204160
 C   -0.386496997552   -0.416758393570   -0.509816795840
 H    0.367503002448    1.460241606430    0.223183204160
 H   -0.077496997552    0.317241606430    1.485183204160
 H    1.419503002448    0.074241606430    0.589183204160
 H   -0.336496997552   -1.466758393570   -0.221816795840
 H    0.038043002448   -0.277878393570   -1.515042595840
 H   -1.446846997552   -0.124748393570   -0.529332495840
