11
0 1 
 C   -0.164387144731   -0.190729235121    0.507147115660
 C   -1.149387144731    0.304270764879   -0.544852884340
 C    1.300612855269   -0.118729235121    0.067147115660
 H   -0.345387144731    0.329270764879    1.439147115660
 H   -0.383387144731   -1.242729235121    0.704147115660
 H   -1.015387144731    1.378270764879   -0.651852884340
 H    1.480612855269   -0.778729235121   -0.780852884340
 H    1.546612855269    0.905270764879   -0.215852884340
 H   -2.172507244731    0.082607764879   -0.207082884340
 H   -0.928878944731   -0.170725235121   -1.512192884340
 H    1.975032855269   -0.441467235121    0.873987115660
