7
-1 1 
 C   -0.161697401415   -0.552867126449    1.295396481322
 C   -0.008697401415    0.021132873551   -0.078603518678
 O   -1.005697401415    0.387132873551   -0.738603518678
 O    1.170302598585    0.140132873551   -0.486603518678
 H   -0.323697401415    0.280132873551    1.983396481322
 H    0.750302598585   -1.067867126449    1.604396481322
 H   -1.010147401415   -1.249087126449    1.368986481322
