16
1 1 
 C   -0.958442451396   -0.699912135351   -0.901008263476
 C   -2.329442451396   -0.288912135351   -1.426008263476
 C    0.801557548604    0.242087864649    0.562991736524
 N   -0.389442451396    0.323087864649   -0.013008263476
 N    1.569557548604   -0.808912135351    0.364991736524
 N    1.225557548604    1.215087864649    1.343991736524
 H   -1.024442451396   -1.665912135351   -0.398008263476
 H   -0.294442451396   -0.815912135351   -1.761008263476
 H   -2.216442451396    0.619087864649   -2.020008263476
 H   -2.997442451396   -0.077912135351   -0.590008263476
 H   -0.951442451396    1.142087864649    0.186991736524
 H    1.222557548604   -1.625912135351   -0.130008263476
 H    2.476557548604   -0.856912135351    0.802991736524
 H    0.616557548604    1.986087864649    1.577991736524
 H    2.110557548604    1.137087864649    1.821991736524
 H   -2.763002451396   -1.083172135351   -2.051458263476
