8
0 1 
 C   -0.707525256881    0.080085727710    0.278203393856
 C    0.707474743119   -0.074914272290   -0.281796606144
 H   -1.086525256881    1.077085727710    0.049203393856
 H   -1.378525256881   -0.656914272290   -0.156796606144
 H   -0.720525256881   -0.071914272290    1.357203393856
 H    1.096474743119   -1.030914272290    0.074203393856
 H    1.368624743119    0.716755727710    0.100486693856
 H    0.721077743119   -0.095674272290   -1.381516506144
