19
0 1 
 C    1.712600895447    2.292311828314   -0.856372769852
 C   -0.014399104553    0.448311828314   -0.086372769852
 C    1.299600895447    0.887311828314   -0.484372769852
 C    0.064600895447   -0.940688171686    0.181627230148
 C    2.089600895447   -0.218688171686   -0.448372769852
 C   -1.249399104553    1.091311828314    0.068627230148
 C   -1.034399104553   -1.685688171686    0.583627230148
 C   -2.349399104553    0.345311828314    0.478627230148
 C   -2.239399104553   -1.030688171686    0.728627230148
 N    1.360600895447   -1.312688171686   -0.049372769852
 H   -1.339399104553    2.151311828314   -0.123372769852
 H    0.851600895447    2.817311828314   -1.269372769852
 H    2.469600895447    2.233311828314   -1.636372769852
 H    3.141600895447   -0.224688171686   -0.683372769852
 H    1.726600895447   -2.258688171686    0.044627230148
 H   -0.950399104553   -2.748688171686    0.745627230148
 H   -3.308399104553    0.832311828314    0.603627230148
 H   -3.114399104553   -1.587688171686    1.038627230148
 H    2.105320895447    2.869539828314   -0.006322769852
