8
0 1 
 C    0.020177487176    0.559963439574   -0.505324789783
 C   -0.010822512824   -0.560036560426    0.503675210217
 H    0.427177487176    0.205963439574   -1.452324789783
 H   -0.989822512824    0.924963439574   -0.681324789783
 H    0.632177487176    1.376963439574   -0.125324789783
 H   -0.458822512824   -1.438036560426    0.034675210217
 H   -0.682822512824   -0.239036560426    1.300675210217
 H    0.960724487176   -0.829946560426    0.943265210217
