7
-1 1 
 C   -0.170469419856   -0.101529906531   -1.424166905346
 C    0.005530580144    0.003470093469    0.084833094654
 O    0.184530580144    1.138470093469    0.581833094654
 O   -0.024469419856   -1.041529906531    0.763833094654
 H    0.554530580144   -0.808529906531   -1.824166905346
 H    0.054530580144    0.858470093469   -1.882166905346
 H   -1.185449419856   -0.420869906531   -1.703146905346
