9
0 1 
 C    0.062974622118    0.314016350054    0.455939032255
 C   -0.460025377882    0.863016350054   -0.872060967745
 O    0.344974622118   -1.066983649946    0.338939032255
 H    0.967974622118    0.853016350054    0.742939032255
 H   -0.690025377882    0.459016350054    1.231939032255
 H   -1.273025377882    0.220016350054   -1.206060967745
 H    0.760974622118   -1.359983649946    1.159939032255
 H    0.341914622118    0.867546350054   -1.624970967745
 H   -0.855195377882    1.879466350054   -0.728300967745
