15
0 1 
 C    0.572665443286    1.162111765162   -2.063810772212
 C    0.367665443286    1.083111765162    0.439189227788
 C    0.211665443286    0.453111765162   -0.795810772212
 C    0.047665443286    0.411111765162    1.623189227788
 C   -0.430334556714   -0.886888234838    1.565189227788
 C   -0.263334556714   -0.852888234838   -0.840810772212
 C   -0.584334556714   -1.511888234838    0.334189227788
 H    0.733665443286    2.098111765162    0.484189227788
 H    0.162665443286    0.899111765162    2.577189227788
 H    0.890665443286    0.418111765162   -2.793810772212
 H    1.441665443286    1.787111765162   -1.871810772212
 H   -0.695334556714   -1.405888234838    2.474189227788
 H   -0.390334556714   -1.354888234838   -1.788810772212
 H   -0.973334556714   -2.519888234838    0.299189227788
 H   -0.236854556714    1.771578765162   -2.491871772212
