18
0 1 
 C   -0.762824654170   -1.756613095565   -0.653177224331
 C   -0.398824654170   -2.784613095565    0.408822775669
 C   -0.259824654170   -0.405613095565   -0.324177224331
 C    1.072175345830   -0.082613095565   -0.537177224331
 C   -1.112824654170    0.517386904435    0.246822775669
 C    1.547175345830    1.186386904435   -0.180177224331
 C   -0.652824654170    1.759386904435    0.598822775669
 C    0.668175345830    2.103386904435    0.399822775669
 H   -0.357824654170   -2.057613095565   -1.615177224331
 H   -1.847824654170   -1.731613095565   -0.752177224331
 H    0.682175345830   -2.755613095565    0.551822775669
 H    1.745175345830   -0.806613095565   -0.975177224331
 H   -2.147824654170    0.265386904435    0.429822775669
 H    2.584175345830    1.449386904435   -0.340177224331
 H   -1.329824654170    2.476386904435    1.041822775669
 H    1.021175345830    3.085386904435    0.686822775669
 H   -0.678520654170   -3.797753095565    0.084282775669
 H   -0.866360654170   -2.522443095565    1.369382775669
