8
0 1 
 C   -0.493787681199    0.185406860515   -0.551395595323
 C    0.494212318801   -0.184593139485    0.555604404677
 H   -0.103787681199    1.027406860515   -1.126395595323
 H   -0.623787681199   -0.664593139485   -1.222395595323
 H   -1.467787681199    0.463406860515   -0.161395595323
 H    0.102212318801   -1.037593139485    1.108604404677
 H    0.628602318801    0.661046860515    1.246134404677
 H    1.459492318801   -0.459363139485    0.105334404677
