12
0 1 
 C    0.668360387102    0.530859496412   -0.687043319919
 C    1.706360387102   -0.576140503588   -0.874043319919
 C   -0.485639612898    0.108859496412    0.215956680081
 O   -1.363639612898   -0.643140503588   -0.210043319919
 N   -0.506639612898    0.593859496412    1.458956680081
 H    1.149360387102    1.421859496412   -0.286043319919
 H    0.260360387102    0.797859496412   -1.662043319919
 H    2.448360387102   -0.284140503588   -1.609043319919
 H    1.196360387102   -1.460140503588   -1.245043319919
 H   -1.273639612898    0.346859496412    2.064956680081
 H    0.203360387102    1.255859496412    1.756956680081
 H    2.204250387102   -0.879360503588    0.058776680081
