15
0 1 
 C    1.447037926842   -1.744671638641   -0.916908518371
 C   -1.372962073158    0.826328361359   -0.552908518371
 C   -0.531962073158   -0.190671638641   -1.114908518371
 C   -1.099962073158    1.333328361359    0.740091481629
 C    0.583037926842   -0.651671638641   -0.396908518371
 C    0.004037926842    0.831328361359    1.440091481629
 C    0.799037926842   -0.167671638641    0.905091481629
 H   -2.233962073158    1.185328361359   -1.097908518371
 H   -0.754962073158   -0.587671638641   -2.095908518371
 H   -1.730962073158    2.090328361359    1.184091481629
 H    0.218037926842    1.202328361359    2.434091481629
 H    0.952037926842   -2.201671638641   -1.774908518371
 H    1.534037926842   -2.517671638641   -0.152908518371
 H    1.608037926842   -0.563671638641    1.493091481629
 H    2.452547926842   -1.420864638641   -1.223668518371
