8
0 1 
 C    0.501853422881   -0.485923524981   -0.300847284755
 C   -0.502146577119    0.486076475019    0.301152715245
 H    1.236853422881    0.094076475019   -0.853847284755
 H    0.995853422881   -1.046923524981    0.493152715245
 H    0.005853422881   -1.179923524981   -0.976847284755
 H   -1.223146577119   -0.083923524981    0.884152715245
 H   -1.021936577119    1.013806475019   -0.512063284755
 H    0.010013422881    1.201066475019    0.961815715245
