9
0 1 
 C   -0.663578513411   -0.112933834057    0.490972773873
 C   -1.645578513411    0.654066165943   -0.408027226127
 S    1.059421486589   -0.212933834057   -0.063027226127
 H   -0.693578513411    0.297066165943    1.502972773873
 H   -1.034578513411   -1.138933834057    0.566972773873
 H   -2.650578513411    0.354066165943   -0.104027226127
 H    1.394421486589   -1.274933834057    0.691972773873
 H   -1.532598513411    0.343736165943   -1.457277226127
 H   -1.597258513411    1.730906165943   -0.188767226127
