7
-1 1 
 C   -0.387612903307   -1.102518674751   -0.827939062534
 C    0.009387096693    0.069481325249    0.037060937466
 O   -0.643612903307    0.330481325249    1.078060937466
 O    1.021387096693    0.706481325249   -0.287939062534
 H   -0.560612903307   -0.743518674751   -1.843939062534
 H   -1.307612903307   -1.519518674751   -0.443939062534
 H    0.376145096693   -1.894113674751   -0.835079062534
