9
0 1 
 C    0.316267712255   -0.334039946034   -0.350511623575
 C   -1.201732287745   -0.378039946034   -0.256511623575
 O    0.835267712255    0.670960053966    0.497488376425
 H    0.720267712255   -1.295039946034   -0.068511623575
 H    0.596267712255   -0.119039946034   -1.381511623575
 H   -1.480732287745   -0.460039946034    0.773488376425
 H    0.665267712255    0.395960053966    1.408488376425
 H   -1.603405287745   -1.264149946034   -0.769801623575
 H   -1.610895287745    0.572300053966   -0.629931623575
