15
0 1 
 C    2.389001816353    0.464672930497    0.162422589936
 C   -1.367998183647    0.942672930497    0.055422589936
 C    0.000001816353    1.209672930497    0.129422589936
 C   -1.814998183647   -0.354327069503   -0.111577410064
 C    0.926001816353    0.181672930497    0.034422589936
 C   -0.902998183647   -1.381327069503   -0.187577410064
 C    0.467001816353   -1.118327069503   -0.116577410064
 H   -2.073998183647    1.756672930497    0.131422589936
 H    0.331001816353    2.228672930497    0.276422589936
 H   -2.868998183647   -0.566327069503   -0.187577410064
 H   -1.239998183647   -2.399327069503   -0.304577410064
 H    2.951001816353   -0.469327069503    0.108422589936
 H    2.570001816353    0.886672930497    1.148422589936
 H    1.169001816353   -1.939327069503   -0.173577410064
 H    2.781511816353    1.160611930497   -0.593627410064
