18
0 1 
 C    1.111971384585   -0.290023514174   -1.692199231780
 C    1.739971384585   -1.676023514174   -1.589199231780
 C    0.261971384585    0.071976485826   -0.504199231780
 C    0.836971384585    0.508976485826    0.684800768220
 C   -1.110028615415   -0.053023514174   -0.577199231780
 C    0.045971384585    0.790976485826    1.798800768220
 C   -1.903028615415    0.268976485826    0.505800768220
 C   -1.322028615415    0.669976485826    1.715800768220
 H    1.900971384585    0.455976485826   -1.792199231780
 H    0.507971384585   -0.244023514174   -2.597199231780
 H    0.940971384585   -2.400023514174   -1.483199231780
 H    1.906971384585    0.607976485826    0.766800768220
 H   -1.574028615415   -0.399023514174   -1.490199231780
 H    0.508971384585    1.099976485826    2.725800768220
 H   -2.974028615415    0.162976485826    0.433800768220
 H   -1.944028615415    0.876976485826    2.574800768220
 H    2.421011384585   -1.733533514174   -0.727299231780
 H    2.332451384585   -1.901832514174   -2.488078231780
