8
0 1 
 C    0.200997455643    0.136408734039    0.735410303815
 C   -0.206002544357   -0.130591265961   -0.736589696185
 H   -0.322002544357    1.015408734039    1.109410303815
 H   -0.055002544357   -0.728591265961    1.349410303815
 H    1.275997455643    0.309408734039    0.797410303815
 H    0.355997455643   -0.999591265961   -1.084589696185
 H    0.076627455643    0.729378734039   -1.361543696185
 H   -1.272022544357   -0.395281265961   -0.796054696185
