11
0 1 
 C   -0.189072076672   -0.101683795156    0.571555632204
 C   -0.630072076672   -0.864683795156   -0.656444367796
 C    0.805927923328    0.959316204844    0.124555632204
 H   -1.038072076672    0.355316204844    1.081555632204
 H    0.288927923328   -0.800683795156    1.256555632204
 H    0.264927923328   -1.262683795156   -1.139444367796
 H    1.555927923328    0.533316204844   -0.544444367796
 H    0.277927923328    1.757316204844   -0.398444367796
 H   -1.185312076672   -0.178973795156   -1.313332367796
 H   -1.302822076672   -1.704343795156   -0.427578367796
 H    1.295857923328    1.384696204844    1.012825632204
