9
0 1 
 C    0.567988321593    1.265366376113    0.431579932967
 C    0.025988321593   -0.064633623887   -0.042420067033
 O    0.562988321593   -0.674633623887   -0.975420067033
 N   -1.084011678407   -0.497633623887    0.551579932967
 H   -1.481011678407   -1.371633623887    0.243579932967
 H   -1.522011678407    0.009366376113    1.311579932967
 H    1.558988321593    1.416366376113    0.021579932967
 H    0.629988321593    1.228366376113    1.517579932967
 H   -0.131726678407    2.041836376113    0.088799932967
