11
0 1 
 C    0.126175907035    0.036879243933    0.565216375087
 C    0.610175907035    1.036879243933   -0.486783624913
 C   -0.719824092965   -1.077120756067   -0.036783624913
 H    0.954175907035   -0.348120756067    1.149216375087
 H   -0.559824092965    0.567879243933    1.224216375087
 H   -0.103824092965    1.089879243933   -1.309783624913
 H    1.571175907035    0.709879243933   -0.883783624913
 H   -1.177824092965   -0.710120756067   -0.961783624913
 H   -0.071824092965   -1.919120756067   -0.303783624913
 H    0.708435907035    2.046159243933   -0.060533624913
 H   -1.517284092965   -1.396400756067    0.650326375087
