9
0 1 
 C    0.507610889702   -1.415884188991   -0.124562101711
 C   -0.324389110298    0.953115811009    1.133437898289
 S   -0.097389110298    0.231115811009   -0.511562101711
 H   -0.282389110298   -2.118884188991    0.112437898289
 H    1.029610889702   -1.801884188991   -1.001562101711
 H    1.230610889702   -1.370884188991    0.690437898289
 H   -1.107389110298    1.700115811009    1.050437898289
 H    0.592610889702    1.485115811009    1.388437898289
 H   -0.555089110298    0.284645811009    1.976008898289
