8
0 1 
 C    0.573009056252    0.472639868784   -0.169218830697
 C   -0.572990943748   -0.472360131216    0.173781169303
 H    1.392009056252    0.317639868784    0.531781169303
 H    0.930009056252    0.265639868784   -1.180218830697
 H    0.232009056252    1.507639868784   -0.122218830697
 H   -1.347990943748   -0.371360131216   -0.589218830697
 H   -1.003530943748   -0.214930131216    1.152741169303
 H   -0.202720943748   -1.507960131216    0.152811169303
