8
0 1 
 C   -0.715920399859    0.214582316080   -0.114263441124
 C    0.717079600141   -0.219417683920    0.118736558876
 H   -1.325920399859    0.024582316080    0.770736558876
 H   -0.734920399859    1.283582316080   -0.336263441124
 H   -1.134920399859   -0.324417683920   -0.964263441124
 H    1.280079600141    0.046582316080   -0.776263441124
 H    0.772759600141   -1.306517683920    0.277196558876
 H    1.129119600141    0.333762316080    0.975596558876
