15
0 1 
 C   -0.562998683285   -1.867452728061   -1.476494329755
 C   -0.705998683285    0.559547271939   -0.829494329755
 C   -0.232998683285   -0.718452728061   -0.560494329755
 C   -0.362998683285    1.620547271939    0.001505670245
 C    0.577001316715   -0.915452728061    0.553505670245
 C    0.438001316715    1.415547271939    1.108505670245
 C    0.910001316715    0.143547271939    1.392505670245
 H   -1.319998683285    0.751547271939   -1.697494329755
 H   -0.735998683285    2.609547271939   -0.208494329755
 H    0.057001316715   -2.718452728061   -1.188494329755
 H   -0.280998683285   -1.602452728061   -2.496494329755
 H    0.955001316715   -1.902452728061    0.778505670245
 H    0.693001316715    2.244547271939    1.754505670245
 H    1.533001316715   -0.027452728061    2.260505670245
 H   -1.615528683285   -2.186642728061   -1.459356329755
