7
-1 1 
 C    1.446203591805    0.127402819857    0.000791751023
 C   -0.083796408195   -0.012597180143    0.010791751023
 O   -0.642796408195   -0.918597180143    0.692791751023
 O   -0.723796408195    0.801402819857   -0.697208248977
 H    1.727203591805    1.175402819857    0.118791751023
 H    1.806203591805   -0.212597180143   -0.972208248977
 H    1.933463591805   -0.469817180143    0.785586751023
