8
0 1 
 C   -0.352475849994   -0.622768575481   -0.268213660468
 C    0.352524150006    0.624231424519    0.267786339532
 H   -1.038475849994   -0.342768575481   -1.068213660468
 H   -0.914475849994   -1.101768575481    0.533786339532
 H    0.377524150006   -1.333768575481   -0.660213660468
 H   -0.403475849994    1.328231424519    0.595786339532
 H    0.980834150006    1.076615924519   -0.513603660468
 H    0.997494150006    0.356040484519    1.117546339532
