7
-1 1 
 C   -0.982825669201   -1.084924062388   -0.041114799210
 C    0.040174330799    0.072075937612    0.001885200790
 O    0.066174330799    0.885075937612    0.934885200790
 O    0.872174330799    0.136075937612   -0.900114799210
 H   -0.587825669201   -1.883924062388    0.573885200790
 H   -1.128825669201   -1.450924062388   -1.061114799210
 H   -1.951634869201   -0.811764062388    0.402498200790
