8
0 1 
 C    0.298269675065    0.689202485345    0.144602547457
 C   -0.297730324935   -0.689797514655   -0.148397452543
 H    0.752269675065    1.100202485345   -0.758397452543
 H   -0.483730324935    1.367202485345    0.484602547457
 H    1.050269675065    0.641202485345    0.931602547457
 H   -0.772730324935   -1.056797514655    0.758602547457
 H    0.506449675065   -1.385747514655   -0.429357452543
 H   -1.058950324935   -0.658977514655   -0.941867452543
