8
0 1 
 C    0.681120201870    0.345197773207    0.095729686707
 C   -0.682879798130   -0.342802226793   -0.102270313293
 H    0.655120201870    1.362197773207   -0.294270313293
 H    0.923120201870    0.383197773207    1.155729686707
 H    1.462120201870   -0.221802226793   -0.411270313293
 H   -1.469879798130    0.315197773207    0.267729686707
 H   -0.680879798130   -1.244802226793    0.509729686707
 H   -0.868649798130   -0.622512226793   -1.149770313293
