8
0 1 
 C   -0.130291370783   -0.732734685352    0.159696799563
 C    0.130708629217    0.733265314648   -0.163303200437
 H    0.756708629217   -1.183734685352    0.604696799563
 H   -0.951291370783   -0.816734685352    0.874696799563
 H   -0.384291370783   -1.275734685352   -0.749303200437
 H    0.488708629217    1.222265314648    0.743696799563
 H    0.888188629217    0.823395314648   -0.955833200437
 H   -0.802991370783    1.224225314648   -0.475013200437
