7
-1 1 
 C    0.544027234338    1.310811986216   -0.182021992997
 C   -0.037972765662   -0.072188013784   -0.000021992997
 O    0.438027234338   -1.023188013784   -0.654021992997
 O   -0.948972765662   -0.218188013784    0.833978007003
 H    0.729027234338    1.503811986216   -1.242021992997
 H    1.496027234338    1.369811986216    0.349978007003
 H   -0.141481965662    2.079830986216    0.203578007003
