15
0 1 
 C   -1.800861410032    1.117481274098    1.244832635459
 C   -0.763861410032    0.303481274098   -0.915167364541
 C   -0.680861410032    0.447481274098    0.473832635459
 C    0.251138589968   -0.348518725902   -1.620167364541
 C    1.348138589968   -0.863518725902   -0.934167364541
 C    0.433138589968   -0.071518725902    1.148832635459
 C    1.441138589968   -0.725518725902    0.446832635459
 H   -1.620861410032    0.688481274098   -1.448167364541
 H    0.200138589968   -0.449518725902   -2.691167364541
 H   -2.361861410032    1.757481274098    0.562832635459
 H   -1.369861410032    1.760481274098    2.013832635459
 H    2.116138589968   -1.377518725902   -1.480167364541
 H    0.521138589968    0.031481274098    2.221832635459
 H    2.295138589968   -1.134518725902    0.963832635459
 H   -2.494371410032    0.398101274098    1.704772635459
