11
0 1 
 C   -0.366727124922   -0.005154618592   -0.419978837586
 C    0.794272875078    1.003845381408   -0.312978837586
 C   -0.448727124922   -0.999154618592    0.711021162414
 H   -1.286727124922    0.576845381408   -0.427978837586
 H   -0.296727124922   -0.536154618592   -1.370978837586
 H    1.732272875078    0.451845381408   -0.241978837586
 H   -0.298727124922   -0.509154618592    1.671021162414
 H    0.677382875078    1.616775381408    0.592923162414
 H    0.861732875078    1.609555381408   -1.228713837586
 H   -1.459357124922   -1.433224618592    0.696406162414
 H    0.322352875078   -1.770964618592    0.570494162414
