11
0 1 
 C   -0.194004017008   -0.489055876329   -0.194728102610
 C   -0.468004017008    0.856944123671   -0.880728102610
 C    0.634995982992   -0.391055876329    1.073271897390
 H   -1.068004017008   -1.103055876329   -0.055728102610
 H    0.420995982992   -1.065055876329   -0.887728102610
 H    0.468995982992    1.200944123671   -1.323728102610
 H    0.026995982992   -0.021055876329    1.898271897390
 H    1.018995982992   -1.377055876329    1.336271897390
 H    1.462995982992    0.288944123671    0.899271897390
 H   -1.213134017008    0.731324123671   -1.680103102610
 H   -0.796214017008    1.620864123671   -0.160520102610
