8
0 1 
 C    0.137309450681   -0.330060587757   -0.679432816025
 C   -0.131690549319    0.327939412243    0.679567183975
 H    0.332309450681   -1.396060587757   -0.569432816025
 H   -0.750690549319   -0.221060587757   -1.300432816025
 H    0.971309450681    0.165939412243   -1.171432816025
 H   -1.032690549319   -0.099060587757    1.101567183975
 H    0.706049450681    0.165589412243    1.373713183975
 H   -0.293190549319    1.409909412243    0.564418183975
