13
1 1 
 C   -0.303305369432   -1.515239773120    1.252088043346
 C    0.063694630568    0.370760226880   -0.313911956654
 N   -0.470305369432   -0.794239773120   -0.010911956654
 N    0.829694630568    0.987760226880    0.563088043346
 N   -0.161305369432    0.920760226880   -1.488911956654
 H   -1.018305369432   -1.241239773120   -0.729911956654
 H    0.672694630568   -1.323239773120    1.700088043346
 H   -0.353305369432   -2.586239773120    1.044088043346
 H    1.021694630568    0.556760226880    1.452088043346
 H    1.265694630568    1.866760226880    0.336088043346
 H   -0.681305369432    0.361760226880   -2.171911956654
 H    0.291694630568    1.777760226880   -1.756911956654
 H   -1.098105369432   -1.267405773120    1.971018043346
