9
0 1 
 C    0.333110174152   -0.491825277186   -0.598366326814
 C    0.049110174152    0.518174722814   -1.719366326814
 S   -0.186889825848    0.021174722814    1.047633673186
 H   -0.187889825848   -1.423825277186   -0.816366326814
 H    1.406110174152   -0.683825277186   -0.541366326814
 H    0.446110174152    1.492174722814   -1.417366326814
 H    0.221110174152   -1.089825277186    1.669633673186
 H   -1.034583825848    0.580074722814   -1.897616326814
 H    0.526972174152    0.139744722814   -2.635026326814
