7
-1 1 
 C   -0.341056556332    0.939534889493    1.046978734946
 C    0.019943443668   -0.057465110507   -0.055021265054
 O   -0.575056556332    0.032534889493   -1.154021265054
 O    0.896943443668   -0.922465110507    0.161978734946
 H   -1.410056556332    1.166534889493    1.018978734946
 H    0.199943443668    1.870534889493    0.860978734946
 H   -0.075026556332    0.584114889493    2.053409734946
