19
0 1 
 C   -1.357962580973   -2.534834456487    0.628575078976
 C   -2.021962580973   -0.065834456487    0.748575078976
 C   -0.172962580973    0.942165543513   -0.010424921024
 C   -1.134962580973   -1.069834456487    0.501575078976
 C    0.058037419027   -0.447834456487    0.007575078976
 C    0.798037419027    1.843165543513   -0.416424921024
 C    2.018037419027    1.336165543513   -0.827424921024
 C    1.312037419027   -0.928834456487   -0.395424921024
 C    2.267037419027   -0.036834456487   -0.823424921024
 N   -1.447962580973    1.139165543513    0.446575078976
 H   -1.871962580973    2.056165543513    0.609575078976
 H   -3.031962580973   -0.204834456487    1.116575078976
 H    0.603037419027    2.904165543513   -0.405424921024
 H   -1.954962580973   -2.729834456487    1.520575078976
 H   -0.389962580973   -3.008834456487    0.790575078976
 H    2.800037419027    2.010165543513   -1.148424921024
 H    1.526037419027   -1.983834456487   -0.339424921024
 H    3.241037419027   -0.402834456487   -1.112424921024
 H   -1.822362580973   -3.007846456487   -0.249254921024
