11
0 1 
 C    0.056028942280   -0.524968126023   -0.083139435760
 C    0.740028942280    0.161031873977    1.103860564240
 C   -0.787971057720    0.338031873977   -1.028139435760
 H    0.824028942280   -1.021968126023   -0.677139435760
 H   -0.617971057720   -1.271968126023    0.335860564240
 H    0.006028942280    0.752031873977    1.655860564240
 H   -0.174971057720    1.114031873977   -1.478139435760
 H    1.549298942280    0.818420873977    0.753250564240
 H    1.122388942280   -0.595775126023    1.804610564240
 H   -1.191961057720   -0.303308126023   -1.825305435760
 H   -1.613131057720    0.816973873977   -0.480669435760
