14
0 1 
 C    0.006709479016   -0.364632384517   -0.111637197832
 C   -1.405290520984    0.029367615483    0.225362802168
 C    0.494709479016    0.582367615483   -1.228637197832
 C    0.914709479016   -0.311632384517    1.112362802168
 H   -0.073290520984   -1.376632384517   -0.458637197832
 H   -2.033290520984   -0.188632384517   -0.639637197832
 H   -1.376290520984    1.119367615483    0.284362802168
 H    0.635709479016    1.589367615483   -0.837637197832
 H    1.450709479016    0.224367615483   -1.613637197832
 H   -0.219290520984    0.611367615483   -2.049637197832
 H    0.631709479016   -1.085632384517    1.826362802168
 H    1.945709479016   -0.492632384517    0.806362802168
 H    0.852709479016    0.668367615483    1.586362802168
 H   -1.943430520984   -0.300966384517    1.126082802168
