8
1 1 
 C   -0.014068225535   -0.791104945781   -0.035260518756
 N    0.014931774465    0.701895054219    0.027739481244
 H    0.410931774465    1.118895054219   -0.814260518756
 H   -0.919068225535    1.072895054219    0.165739481244
 H    0.579931774465    1.016895054219    0.809739481244
 H   -0.735068225535   -1.128104945781   -0.789260518756
 H   -0.346068225535   -1.188104945781    0.930739481244
 H    0.969381774465   -1.225299945781   -0.268278518756
