19
0 1 
 C   -2.463914663151   -0.383412048569   -0.501571395971
 C   -3.239914663151    0.763587951431    0.190428604029
 C   -0.956914663151   -0.321412048569   -0.300571395971
 C   -0.168914663151    0.461587951431   -1.142571395971
 C   -0.356914663151   -0.917412048569    0.813428604029
 C    1.186085336849    0.631587951431   -0.903571395971
 C    0.999085336849   -0.724412048569    1.084428604029
 C    1.774085336849    0.028587951431    0.203428604029
 O    3.093085336849    0.243587951431    0.473428604029
 H   -2.815914663151   -1.326412048569   -0.081571395971
 H   -2.694914663151   -0.404412048569   -1.564571395971
 H   -4.267914663151    0.434587951431    0.346428604029
 H   -0.615914663151    0.960587951431   -1.989571395971
 H   -0.955914663151   -1.514412048569    1.479428604029
 H    1.774085336849    1.241587951431   -1.573571395971
 H    1.456085336849   -1.164412048569    1.957428604029
 H    3.518085336849    0.741587951431   -0.227571395971
 H   -3.260095663151    1.685187951431   -0.409771395971
 H   -2.799981663151    0.972767951431    1.176684604029
