8
1 1 
 C    0.010538331178    0.692547335529   -0.409945443432
 N   -0.010461668822   -0.611452664471    0.362054556568
 H   -0.914461668822   -0.777452664471    0.794054556568
 H    0.172538331178   -1.395452664471   -0.255945443432
 H    0.715538331178   -0.625452664471    1.080054556568
 H   -0.649461668822    0.649547335529   -1.283945443432
 H    1.029538331178    0.910547335529   -0.750945443432
 H   -0.333811668822    1.487958335529    0.267364556568
