8
0 1 
 C   -0.003419393609   -0.744870864552    0.214203004773
 C    0.004580606391    0.745129135448   -0.217796995227
 H    0.229580606391   -1.394870864552   -0.628796995227
 H    0.728580606391   -0.920870864552    1.001203004773
 H   -0.975419393609   -1.001870864552    0.617203004773
 H   -0.426419393609    1.345129135448    0.583203004773
 H   -0.603759393609    0.884379135448   -1.123626995227
 H    1.033610606391    1.085029135448   -0.406391995227
