11
0 1 
 C    0.391550946607   -0.431044440043   -0.002007308106
 C   -0.025449053393    0.328955559957    1.260992691894
 C   -0.331449053393    0.078955559957   -1.262007308106
 H    1.469550946607   -0.322044440043   -0.126007308106
 H    0.156550946607   -1.485044440043    0.140992691894
 H   -1.114449053393    0.341955559957    1.318992691894
 H   -1.344449053393   -0.322044440043   -1.270007308106
 H   -0.379449053393    1.166955559957   -1.218007308106
 H    0.351013946607    1.361755559957    1.222072691894
 H    0.260217946607   -0.248144440043    2.152792691894
 H    0.188407946607   -0.217944440043   -2.184847308106
