12
0 1 
 C   -0.984616417958    0.399173374388    0.243071914762
 C   -1.151616417958   -0.591826625612    1.389071914762
 C    0.348383582042    0.196173374388   -0.402928085238
 O    0.895383582042    1.141173374388   -0.953928085238
 N    0.819383582042   -1.040826625612   -0.310928085238
 H   -1.744616417958    0.329173374388   -0.533928085238
 H   -0.945616417958    1.352173374388    0.677071914762
 H   -1.201616417958    0.055173374388    2.267071914762
 H   -0.339616417958   -1.266826625612    1.650071914762
 H    1.724383582042   -1.234826625612   -0.718928085238
 H    0.298383582042   -1.776826625612    0.133071914762
 H   -2.098876417958   -1.149593625612    1.349181914762
