9
0 1 
 C    1.168080476054   -0.793569181487   -0.354247606687
 C   -0.077919523946   -0.008569181487    0.017752393313
 O   -1.158919523946   -0.576569181487    0.205752393313
 N    0.056080476054    1.300430818513    0.123752393313
 H   -0.753919523946    1.846430818513    0.373752393313
 H    0.955080476054    1.735430818513   -0.047247606687
 H    1.552080476054   -1.284569181487    0.540752393313
 H    1.938080476054   -0.116569181487   -0.723247606687
 H    0.942010476054   -1.547869181487   -1.122317606687
