13
1 1 
 C    1.520404625325    0.214177262654    1.212329120257
 C   -0.385595374675   -0.050822737346   -0.281670879743
 N    0.180404625325   -0.260822737346    0.909329120257
 N   -1.609595374675   -0.476822737346   -0.525670879743
 N    0.287404625325    0.563177262654   -1.244670879743
 H   -0.276595374675   -0.900822737346    1.559329120257
 H    1.568404625325    1.293177262654    1.045329120257
 H    2.204404625325   -0.257822737346    0.505329120257
 H   -2.110595374675   -0.970822737346    0.198329120257
 H   -2.041595374675   -0.323822737346   -1.421670879743
 H    1.222404625325    0.893177262654   -1.077670879743
 H   -0.142595374675    0.723177262654   -2.142670879743
 H    1.928564625325    0.022847262654    2.215719120257
