8
0 1 
 C   -0.737806161726    0.095754900426   -0.223657874917
 C    0.744193838274   -0.092245099575    0.224342125083
 H   -1.010806161726   -0.654245099574   -0.967657874917
 H   -1.391806161726   -0.015245099574    0.636342125083
 H   -0.891806161726    1.093754900425   -0.635657874917
 H    1.037193838274    0.709754900426    0.900342125083
 H    1.372533838274   -0.112355099575   -0.678307874917
 H    0.808633838274   -1.063455099575    0.736792125083
