8
0 1 
 C    0.730996768507   -0.039481110291   -0.206487924997
 C   -0.733003231493    0.040518889709    0.206512075003
 H    1.375996768507    0.185518889709    0.643512075003
 H    0.958996768507   -1.046481110291   -0.545487924997
 H    0.930996768507    0.666518889709   -1.011487924997
 H   -1.363003231493   -0.067481110291   -0.676487924997
 H   -0.913693231493    1.018818889709    0.675862075003
 H   -0.965403231493   -0.769251110291    0.913802075003
