18
0 1 
 C    0.364345162855   -1.005159232586    1.021333516322
 C    0.774345162855   -2.347159232586    0.390333516322
 C   -0.405654837145   -1.107159232586   -1.265666483678
 C   -0.478654837145    2.011840767414   -1.155666483678
 C   -0.181654837145    1.117840767414    0.042333516322
 O    0.064345162855    1.626840767414    1.129333516322
 N   -0.167654837145   -0.224159232586   -0.101666483678
 H   -0.405654837145   -1.119159232586    1.788333516322
 H    1.220345162855   -0.484159232586    1.454333516322
 H    0.055345162855   -3.121159232586    0.673333516322
 H    1.764345162855   -2.644159232586    0.721333516322
 H   -0.423654837145   -0.534159232586   -2.190666483678
 H   -0.782654837145    1.345840767414   -1.954666483678
 H    0.752565162855   -2.165219232586   -0.694296483678
 H    0.428625162855   -1.819459232586   -1.184346483678
 H   -1.363574837145   -1.639659232586   -1.171696483678
 H   -1.247314837145    2.779010767414   -0.980696483678
 H    0.443945162855    2.531340767414   -1.453856483678
