8
0 1 
 C   -0.552463652317    0.518142730383   -0.083232476412
 C    0.550536347683   -0.521857269617    0.088767523588
 H   -1.075463652317    0.681142730383    0.860767523588
 H   -0.120463652317    1.467142730383   -0.395232476412
 H   -1.261463652317    0.185142730383   -0.841232476412
 H    1.076536347683   -0.579857269617   -0.864232476412
 H    0.130666347683   -1.511506269617    0.321797523588
 H    1.273136347683   -0.197836269617    0.852227523588
