6
0 1 
 C   -0.610798950970    0.310076558132    0.257112652791
 O    0.556201049030   -0.288923441868   -0.295887347209
 H    1.185201049030   -0.453923441868    0.422112652791
 H   -0.834798950970   -0.170923441868    1.209112652791
 H   -0.441978950970    1.384946558132    0.418812652791
 H   -1.463058950970    0.133296558132   -0.415487347209
