8
0 1 
 C    0.721411013937   -0.189127032879    0.009500302811
 C   -0.721588986063    0.192872967121   -0.003499697189
 H    0.969411013937   -0.698127032879    0.940500302811
 H    0.923411013937   -0.865127032879   -0.821499697189
 H    1.346411013937    0.697872967121   -0.094499697189
 H   -1.330588986063   -0.707127032879    0.076500302811
 H   -0.922588986063    0.636872967121   -0.977499697189
 H   -0.983935986063    0.891032967121    0.805050302811
