8
0 1 
 C    0.726742080824    0.195260864162    0.050370925889
 C   -0.730257919176   -0.198739135838   -0.051629074111
 H    1.341742080824   -0.679739135838    0.270370925889
 H    1.035742080824    0.636260864162   -0.894629074111
 H    0.874742080824    0.928260864162    0.842370925889
 H   -1.297257919176    0.619260864162   -0.488629074111
 H   -1.079027919176   -0.374929135838    0.976630925889
 H   -0.834077919176   -1.087699135838   -0.691134074111
