12
0 1 
 C    0.154969452961   -0.380869545790   -1.000630329740
 C   -1.307030547039   -0.613869545790   -1.376630329740
 C    0.295969452961    0.196130454210    0.386369670260
 O   -0.539030547039    0.980130454210    0.831369670260
 N    1.360969452961   -0.174869545790    1.079369670260
 H    0.696969452961   -1.325869545790   -1.064630329740
 H    0.616969452961    0.303130454210   -1.704630329740
 H   -1.870030547039    0.305130454210   -1.191630329740
 H    1.486969452961    0.199130454210    2.008369670260
 H    2.038969452961   -0.807869545790    0.680369670260
 H   -1.729462547039   -1.428559445790   -0.770140329740
 H   -1.402028547039   -0.861879445790   -2.444090329740
