13
1 1 
 C   -1.566730903520   -0.526909539796   -1.103096048273
 C    0.381269096480    0.144090460204    0.266903951727
 N   -0.059730903520   -0.549909539796    1.297903951727
 N   -0.283730903520    0.143090460204   -0.877096048273
 N    1.512269096480    0.812090460204    0.366903951727
 H   -0.874730903520   -1.127909539796    1.193903951727
 H    0.415269096480   -0.515909539796    2.195903951727
 H    0.125269096480    0.637090460204   -1.657096048273
 H    1.883269096480    1.302090460204   -0.432096048273
 H    2.049269096480    0.757090460204    1.216903951727
 H   -1.945730903520   -1.005909539796   -0.200096048273
 H   -1.445730903520   -1.304909539796   -1.860096048273
 H   -2.331610903520    0.185545460204   -1.445676048273
