8
0 1 
 C    0.088760982025   -0.752473608448    0.087213766840
 C   -0.089239017975    0.751526391552   -0.085786233160
 H   -0.697239017975   -1.162473608448    0.718213766840
 H    0.049760982025   -1.231473608448   -0.888786233160
 H    1.060760982025   -0.962473608448    0.535213766840
 H    0.613760982025    1.125526391552   -0.808786233160
 H    0.087150982025    1.274596391552    0.865673766840
 H   -1.108503017975    0.967576391552   -0.438526233160
