11
0 1 
 C    0.236788395350    0.448659102529   -0.271483543139
 C   -0.074211604650    0.423659102529    1.207516456861
 C   -0.154211604650   -0.845340897471   -0.953483543139
 H   -0.304211604650    1.286659102529   -0.715483543139
 H    1.300788395350    0.635659102529   -0.425483543139
 H    0.286788395350   -0.517340897471    1.626516456861
 H   -1.114211604650   -1.214340897471   -0.595483543139
 H   -1.161121604650    0.482144102529    1.366266456861
 H    0.496398395350    1.212846102529    1.718976456861
 H   -0.237671604650   -0.624201897471   -2.027793543139
 H    0.633638395350   -1.582638897471   -0.739733543139
