9
0 1 
 C    0.592515106659    1.231289002902   -0.508644448305
 C   -0.028484893341   -0.068710997098   -0.026644448305
 O   -0.349484893341   -0.951710997098   -0.822644448305
 N   -0.207484893341   -0.204710997098    1.278355551695
 H   -0.598484893341   -1.069710997098    1.618355551695
 H   -0.000484893341    0.539289002902    1.935355551695
 H    1.522515106659    0.991289002902   -1.026644448305
 H    0.853515106659    1.864289002902    0.340355551695
 H   -0.063424893341    1.780897302902   -1.199784448305
