19
0 1 
 C   -2.579581879729   -1.341559091494   -0.617002533691
 C    0.858418120271   -0.199559091494    0.388997466309
 C   -0.418581879729    0.078440908506   -0.184002533691
 C   -1.185581879729   -1.125559091494   -0.126002533691
 C   -0.390581879729   -2.063559091494    0.466997466309
 C    1.585418120271    2.034440908506    0.013997466309
 C    1.844418120271    0.768440908506    0.502997466309
 C    0.335418120271    2.334440908506   -0.567002533691
 C   -0.653581879729    1.369440908506   -0.663002533691
 N    0.819418120271   -1.511559091494    0.779997466309
 H    2.346418120271    2.801440908506    0.073997466309
 H    2.798418120271    0.532440908506    0.952997466309
 H    0.149418120271    3.322440908506   -0.962002533691
 H   -1.598581879729    1.589440908506   -1.128002533691
 H    1.573418120271   -2.018559091494    1.232997466309
 H   -0.681581879729   -3.092559091494    0.658997466309
 H   -2.633581879729   -2.347559091494   -1.037002533691
 H   -2.767581879729   -0.639559091494   -1.427002533691
 H   -3.377081879729   -1.232184091494    0.132687466309
