9
0 1 
 C    1.192064326112    0.822960412422   -0.159566186141
 C   -0.031935673888   -0.064039587578   -0.035566186141
 O   -0.399935673888   -0.782039587578   -0.972566186141
 N   -0.716935673888    0.009960412422    1.097433813859
 H    1.666064326112    0.916960412422    0.820433813859
 H    0.859064326112    1.811960412422   -0.463566186141
 H   -1.558935673888   -0.537039587578    1.181433813859
 H   -0.401935673888    0.594960412422    1.856433813859
 H    1.930914326112    0.449960412422   -0.884126186141
