10
-1 1 
 C   -0.895761362056   -0.591385112954   -0.136566675707
 C   -1.018761362056   -0.508385112954   -1.633566675707
 C    0.310238637944    0.157614887046    0.445433324293
 O    0.885238637944    0.992614887046   -0.281566675707
 O    0.683238637944   -0.081385112954    1.626433324293
 H   -1.796761362056   -0.146385112954    0.289433324293
 H   -0.838761362056   -1.639385112954    0.155433324293
 H   -0.177761362056   -1.023385112954   -2.097566675707
 H   -1.015761362056    0.533614887046   -1.954566675707
 H   -1.961891362056   -0.968255112954   -1.963766675707
