8
0 1 
 C    0.231899957171   -0.235980908105   -0.683251988046
 C   -0.234100042829    0.243019091895    0.678748011954
 H    1.047899957171    0.386019091895   -1.049251988046
 H    0.597899957171   -1.259980908105   -0.597251988046
 H   -0.592100042829   -0.217980908105   -1.394251988046
 H    0.628899957171    0.343019091895    1.333748011954
 H   -0.880100042829   -0.534980908105    1.084748011954
 H   -0.776303742829    1.200102091895    0.675888011954
