8
0 1 
 C   -0.168926046353   -0.030018586898    0.742250785356
 C    0.168073953647    0.034981413102   -0.742749214644
 H   -0.906926046353    0.723981413102    1.015250785356
 H   -0.574926046353   -1.016018586898    0.958250785356
 H    0.734073953647    0.114981413102    1.335250785356
 H    0.889073953647   -0.754018586898   -0.964749214644
 H    0.610134953647    1.008661413102   -1.000679214644
 H   -0.741285046353   -0.136678586898   -1.337389214644
