11
0 1 
 C   -0.479441011271    0.015553265302    0.243088011018
 C    0.183558988729   -1.291446734698   -0.202911988982
 C    0.281558988729    1.283553265302   -0.028911988982
 H   -1.442441011271    0.081553265302   -0.248911988982
 H   -0.651441011271   -0.065446734698    1.320088011018
 H    0.054558988729   -1.386446734698   -1.271911988982
 H   -0.386441011271   -2.097446734698    0.258088011018
 H    1.300558988729    1.209553265302    0.363088011018
 H    0.321558988729    1.468553265302   -1.107911988982
 H    1.248748988729   -1.376316734698    0.058171011018
 H   -0.274561011271    2.074793265302    0.495182011018
