7
-1 1 
 C   -0.100482638341   -0.496863291296   -1.344594985394
 C    0.004517361659    0.032136708704    0.079405014606
 O   -0.013482638341    1.269136708704    0.265405014606
 O    0.108517361659   -0.799863291296    1.002405014606
 H   -0.915482638341   -1.218863291296   -1.410594985394
 H    0.832517361659   -1.011863291296   -1.583594985394
 H   -0.282662638341    0.316436708704   -2.062474985394
