8
0 1 
 C   -0.229217668231    0.176291645842    0.714782616406
 C    0.231782331769   -0.168708354158   -0.715217383594
 H    0.149782331769    1.154291645842    0.987782616406
 H   -1.314217668231    0.168291645842    0.762782616406
 H    0.140782331769   -0.563708354158    1.425782616406
 H   -0.034217668231   -1.209708354158   -0.908217383594
 H    1.324537331769   -0.067023354158   -0.789690383594
 H   -0.297203668231    0.427563815842   -1.473263383594
