8
0 1 
 C   -0.133997693242   -0.623943420941    0.430020476725
 C    0.121002306758    0.623056579059   -0.432979523275
 H   -1.117997693242   -1.030943420941    0.206020476725
 H    0.621002306758   -1.376943420941    0.209020476725
 H   -0.053997693242   -0.363943420941    1.485020476725
 H    1.104002306758    0.997056579059   -0.144979523275
 H   -0.595017693242    1.431266579059   -0.222959523275
 H    0.196742306758    0.354066579059   -1.496889523275
