11
0 1 
 C   -0.479130792480   -0.250015913069   -0.178066994404
 C   -0.120130792480    1.201984086931   -0.496066994404
 C    0.567869207520   -0.965015913069    0.667933005596
 H   -1.439130792480   -0.285015913069    0.338933005596
 H   -0.588130792480   -0.788015913069   -1.121066994404
 H    0.795869207520    1.202984086931   -1.090066994404
 H    1.541869207520   -0.866015913069    0.191933005596
 H    0.611869207520   -0.508015913069    1.656933005596
 H    0.039149207520    1.771152086931    0.431663005596
 H   -0.907340792480    1.659146086931   -1.113556994404
 H    0.319629207520   -2.030861413069    0.779063005596
