15
0 1 
 C   -0.045813128039    0.558407960502   -2.395887761529
 C   -1.083813128039   -0.478592039498   -0.326887761529
 C   -0.020813128039    0.205407960502   -0.921887761529
 C   -1.062813128039   -0.769592039498    1.041112238471
 C    1.063186871961    0.588407960502   -0.127887761529
 C    0.047186871961   -0.436592039498    1.806112238471
 C    1.106186871961    0.255407960502    1.228112238471
 H   -1.928813128039   -0.790592039498   -0.922887761529
 H   -1.884813128039   -1.304592039498    1.488112238471
 H    0.574186871961    1.444407960502   -2.540887761529
 H   -1.056813128039    0.832407960502   -2.679887761529
 H    1.888186871961    1.130407960502   -0.568887761529
 H    0.079186871961   -0.698592039498    2.855112238471
 H    1.961186871961    0.536407960502    1.828112238471
 H    0.328302871961   -0.231312039498   -3.064002761529
