11
0 1 
 C   -0.250051139792    0.401767163042   -0.225062843989
 C    1.133948860208    0.606767163042    0.367937156011
 C   -0.889051139792   -0.990232836958   -0.158062843989
 H   -0.922051139792    1.082767163042    0.298937156011
 H   -0.227051139792    0.715767163042   -1.271062843989
 H    1.116948860208    0.212767163042    1.384937156011
 H   -0.322051139792   -1.685232836958   -0.777062843989
 H    1.344818860208    1.685947163042    0.398057156011
 H    1.914688860208    0.072457163042   -0.193272843989
 H   -0.922441139792   -1.371272836958    0.873287156011
 H   -1.921501139792   -0.931112836958   -0.532972843989
