12
0 1 
 C   -0.615484487673   -0.363723140091   -0.822974405384
 C   -1.190484487673   -1.570723140091   -0.074974405384
 C    0.363515512327    0.390276859909    0.035025594616
 O    1.349515512327   -0.181723140091    0.488025594616
 N    0.087515512327    1.656276859909    0.302025594616
 H   -0.088484487673   -0.715723140091   -1.705974405384
 H   -1.425484487673    0.295276859909   -1.141974405384
 H   -1.705484487673   -1.222723140091    0.822025594616
 H   -0.357484487673   -2.206723140091    0.229025594616
 H    0.699515512327    2.150276859909    0.939025594616
 H   -0.698484487673    2.134276859909   -0.131974405384
 H   -1.882808487673   -2.177313140091   -0.677244405384
