16
0 1 
 C    1.508518067925    2.126167687157   -1.347514902548
 C    0.670518067925   -1.096832312843    0.500485097452
 C    1.385518067925   -0.079832312843   -0.142514902548
 C   -0.716481932075   -0.989832312843    0.631485097452
 C    0.729518067925    1.037167687157   -0.655514902548
 C   -1.386481932075    0.122167687157    0.120485097452
 C   -0.656481932075    1.129167687157   -0.520514902548
 O   -1.420481932075   -1.974832312843    1.262485097452
 H    1.191518067925   -1.951832312843    0.897485097452
 H    2.456518067925   -0.152832312843   -0.230514902548
 H   -0.840481932075   -2.752832312843    1.338485097452
 H   -2.455481932075    0.205167687157    0.227485097452
 H    2.148518067925    2.614167687157   -0.610514902548
 H    0.817518067925    2.871167687157   -1.740514902548
 H   -1.179481932075    1.990167687157   -0.915514902548
 H    2.132918067925    1.750227687157   -2.171405902548
