8
0 1 
 C   -0.115908430266   -0.449119446714    0.608841666992
 C    0.115091569734    0.453880553286   -0.606158333008
 H   -0.970908430266   -1.102119446714    0.442841666992
 H    0.760091569734   -1.065119446714    0.778841666992
 H   -0.293908430266    0.160880553286    1.487841666992
 H    0.152091569734   -0.185119446714   -1.487158333008
 H   -0.720175430266    1.161527553286   -0.713708333008
 H    1.082535369734    0.973260553286   -0.540608333008
