10
-1 1 
 C   -0.181587708296    1.046250619193   -0.136042166560
 C    1.260412291704    1.530250619193   -0.352042166560
 C   -0.322587708296   -0.458749380807    0.104957833440
 O    0.650412291704   -1.119749380807    0.541957833440
 O   -1.436587708296   -0.969749380807   -0.166042166560
 H   -0.592587708296    1.576250619193    0.723957833440
 H   -0.782587708296    1.342250619193   -0.999042166560
 H    1.840412291704    1.304250619193    0.540957833440
 H    1.230412291704    2.614250619193   -0.443042166560
 H    1.777142291704    1.109150619193   -1.227064166560
