7
-1 1 
 C   -0.026414258169    0.462384545865    1.372600292838
 C   -0.011414258169   -0.020615454135   -0.074399707162
 O   -1.046414258169   -0.482615454135   -0.613399707162
 O    1.072585741831    0.044384545865   -0.690399707162
 H    0.223585741831    1.521384545865    1.426600292838
 H    0.770585741831   -0.068615454135    1.895600292838
 H   -0.959114258169    0.242204545865    1.912590292838
