8
0 1 
 C    0.385967783689   -0.560334359717   -0.343868287589
 C   -0.383032216311    0.562665640283    0.343131712411
 H    1.430967783689   -0.526334359717   -0.040868287589
 H   -0.037032216311   -1.521334359717   -0.048868287589
 H    0.309967783689   -0.479334359717   -1.428868287589
 H   -1.405032216311    0.551665640283   -0.037868287589
 H    0.075027783689    1.540534640283    0.133481712411
 H   -0.408852216311    0.407044640283    1.431761712411
