11
0 1 
 C    0.094862128688    0.517638345988    0.222941246831
 C    0.777862128688   -0.767361654012    0.727941246831
 C   -0.866137871312    0.279638345988   -0.926058753169
 H   -0.400137871312    1.017638345988    1.037941246831
 H    0.722862128688    1.257638345988   -0.238058753169
 H    0.961862128688   -1.519361654012   -0.033058753169
 H    0.161862128688   -1.203361654012    1.516941246831
 H   -1.856137871312    0.655638345988   -0.656058753169
 H   -0.535137871312    0.841638345988   -1.804058753169
 H    1.805971128688   -0.625981654012    1.092637246831
 H   -0.939566871312   -0.780041654012   -1.211856753169
