8
0 1 
 C   -0.172097180789   -0.129199679336    0.732074423230
 C    0.175902819211    0.127800320664   -0.732925576770
 H    0.593902819211   -0.743199679336    1.208074423230
 H   -0.245097180789    0.820800320664    1.262074423230
 H   -1.131097180789   -0.643199679336    0.800074423230
 H   -0.575097180789    0.797800320664   -1.156925576770
 H    0.153112819211   -0.827995679336   -1.276923576770
 H    1.158962819211    0.612456320664   -0.826239576770
