7
-1 1 
 C   -1.099663005688   -0.257804901101   -0.901175831485
 C    0.062336994312   -0.001804901101    0.052824168515
 O    0.112336994312   -0.566804901101    1.171824168515
 O    0.929336994312    0.817195098899   -0.321175831485
 H   -0.738663005688   -0.333804901101   -1.929175831485
 H   -1.758663005688    0.605195098899   -0.825175831485
 H   -1.683533005688   -1.154134901101   -0.644876831485
