8
0 1 
 C   -0.397297760940    0.602703413019    0.242915581351
 C    0.394702239060   -0.605296586981   -0.242084418649
 H   -1.127297760940    0.297703413019    0.993915581351
 H    0.282702239060    1.309703413019    0.702915581351
 H   -0.904297760940    1.077703413019   -0.597084418649
 H    0.949702239060   -0.304296586981   -1.131084418649
 H   -0.289527760940   -1.426946586981   -0.500384418649
 H    1.119623239060   -0.922990586981    0.521825581351
