8
0 1 
 C    0.246590971704    0.049146380679    0.747710183627
 C   -0.239409028296   -0.053853619321   -0.745289816373
 H    0.786590971704    0.978146380679    0.923710183627
 H   -0.624409028296    0.064146380679    1.394710183627
 H    0.880590971704   -0.799853619321    1.004710183627
 H   -0.923409028296    0.770146380679   -0.923289816373
 H    0.571470971704    0.036246380679   -1.483099816373
 H   -0.776349028296   -0.992783619321   -0.945559816373
