8
0 1 
 C    0.614595806516   -0.391012549397    0.222637314806
 C   -0.612404193484    0.395987450603   -0.217362685194
 H    1.054595806516    0.044987450603    1.122637314806
 H    0.327595806516   -1.422012549397    0.416637314806
 H    1.353595806516   -0.387012549397   -0.579362685194
 H   -1.030404193484   -0.097012549397   -1.096362685194
 H   -0.339244193484    1.427507450603   -0.484485685194
 H   -1.392234193484    0.374307450603    0.558132314806
