14
0 1 
 C   -0.037898714200   -0.355827238094   -0.049827368551
 C    1.405101285800   -0.149827238094    0.441172631449
 C   -1.047898714200    0.155172761906    0.998172631449
 C   -0.319898714200    0.309172761906   -1.398827368551
 H   -0.205898714200   -1.424827238094   -0.174827368551
 H    1.571101285800    0.917172761906    0.555172631449
 H   -0.866898714200    1.210172761906    1.208172631449
 H   -2.061898714200    0.040172761906    0.614172631449
 H   -0.974898714200   -0.419827238094    1.921172631449
 H    0.297101285800   -0.142827238094   -2.171827368551
 H   -1.366898714200    0.166172761906   -1.657827368551
 H   -0.090898714200    1.370172761906   -1.335827368551
 H    2.139321285800   -0.578313238094   -0.256907368551
 H    1.566951285800   -0.646210238094    1.409372631449
