7
-1 1 
 C    1.307272390224   -0.303942707995    0.515048008555
 C   -0.076727609776    0.009057292005   -0.022951991445
 O   -0.447727609776    1.204057292005   -0.028951991445
 O   -0.790727609776   -0.914942707995   -0.459951991445
 H    1.317272390224   -0.351942707995    1.581048008555
 H    1.968272390224    0.509057292005    0.223048008555
 H    1.717752390224   -1.234422707995    0.095862008555
