15
0 1 
 C    1.684412914117   -1.057459911152   -1.441638227178
 C   -0.190587085883   -1.187459911152    0.251361772822
 C    0.642412914117   -0.411459911152   -0.558638227178
 C   -1.141587085883   -0.583459911152    1.078361772822
 C    0.505412914117    0.978540088848   -0.532638227178
 C   -1.270587085883    0.805540088848    1.095361772822
 C   -0.449587085883    1.587540088848    0.286361772822
 H   -0.120587085883   -2.260459911152    0.208361772822
 H   -1.776587085883   -1.190459911152    1.708361772822
 H    2.004412914117   -1.997459911152   -0.990638227178
 H    2.563412914117   -0.412459911152   -1.469638227178
 H    1.146412914117    1.596540088848   -1.145638227178
 H   -2.000587085883    1.276540088848    1.739361772822
 H   -0.545587085883    2.665540088848    0.296361772822
 H    1.349916914117   -1.246869911152   -2.472287227178
