16
0 1 
 C   -1.844126866247   -1.013884444723   -2.029699255022
 C    1.285873133753    0.307115555277   -0.340699255022
 C    0.408873133753   -0.188884444723   -1.306699255022
 C    0.838873133753    0.492115555277    0.962300744978
 C   -0.896126866247   -0.503884444723   -0.978699255022
 C   -0.467126866247    0.169115555277    1.310300744978
 C   -1.320126866247   -0.335884444723    0.333300744978
 O    1.727873133753    0.980115555277    1.870300744978
 H    2.304873133753    0.536115555277   -0.614699255022
 H    0.759873133753   -0.322884444723   -2.322699255022
 H    2.620873133753    0.775115555277    1.604300744978
 H   -0.807126866247    0.310115555277    2.326300744978
 H   -2.377126866247   -1.882884444723   -1.639699255022
 H   -1.269126866247   -1.340884444723   -2.895699255022
 H   -2.338126866247   -0.588884444723    0.600300744978
 H   -2.575828866247   -0.250744444723   -2.333389255022
