11
0 1 
 C    0.093456586855   -0.575467783846   -0.285650573701
 C    1.118456586855    0.323532216154    0.356349426299
 C   -1.203543413145    0.199532216154   -0.086650573701
 H    0.074456586855   -1.567467783846    0.168349426299
 H    0.277456586855   -0.635467783846   -1.353650573701
 H    1.089456586855    0.188532216154    1.438349426299
 H    2.123456586855    0.125532216154   -0.014650573701
 H   -1.870543413145    0.016532216154   -0.931650573701
 H    0.791896586855    1.343472216154    0.105207426299
 H   -0.883543413145    1.251812216154   -0.069251573701
 H   -1.702293413145   -0.098987783846    0.847231426299
