7
-1 1 
 C    0.701957506228    1.064275140352   -0.679055372168
 C   -0.036042493772   -0.069724859648    0.028944627832
 O   -1.286042493772   -0.109724859648   -0.053055372168
 O    0.624957506228   -0.893724859648    0.701944627832
 H    1.663957506228    1.258275140352   -0.198055372168
 H    0.067957506228    1.941275140352   -0.603055372168
 H    0.831047506228    0.883985140352   -1.756475372168
