16
0 1 
 C   -2.128475765545    0.490021523786   -1.953881932577
 C    1.002524234455   -0.227978476214    0.891118067423
 C   -0.215475765545   -0.854978476214    1.026118067423
 C    1.209524234455    0.671021523786   -0.131881932577
 C   -1.226475765545   -0.600978476214    0.125118067423
 C    0.172524234455    0.922021523786   -1.037881932577
 C   -1.034475765545    0.263021523786   -0.934881932577
 O    2.011524234455   -0.530978476214    1.781118067423
 H   -0.383475765545   -1.556978476214    1.830118067423
 H    1.789524234455   -1.273978476214    2.352118067423
 H    2.165524234455    1.166021523786   -0.229881932577
 H   -2.177475765545   -1.103978476214    0.246118067423
 H    0.336524234455    1.623021523786   -1.847881932577
 H   -1.774475765545    1.169021523786   -2.730881932577
 H   -2.974475765545    0.964021523786   -1.456881932577
 H   -2.468925765545   -0.444251476214   -2.424229932577
