7
-1 1 
 C    0.178413752562   -0.745359342115   -1.224171871185
 C   -0.025586247438    0.049640657885    0.068828128815
 O    1.008413752562    0.274640657885    0.741828128815
 O   -1.170586247438    0.423640657885    0.416828128815
 H    1.054413752562   -1.383359342115   -1.094171871185
 H    0.386413752562   -0.048359342115   -2.039171871185
 H   -0.686723247438   -1.366709342115   -1.498891871185
