18
0 1 
 C   -1.806247706426    0.388953172068   -0.876260004878
 C   -2.868247706426   -0.134046827932    0.090739995122
 C   -0.411247706426    0.173953172068   -0.372260004878
 C    0.032752293574    0.872953172068    0.741739995122
 C    0.432752293574   -0.750046827932   -0.973260004878
 C    1.308752293574    0.662953172068    1.244739995122
 C    1.712752293574   -0.962046827932   -0.474260004878
 C    2.152752293574   -0.258046827932    0.641739995122
 H   -1.930247706426   -0.099046827932   -1.842260004878
 H   -1.948247706426    1.455953172068   -1.030260004878
 H   -2.660247706426    0.316953172068    1.058739995122
 H   -0.613247706426    1.593953172068    1.222739995122
 H    0.100752293574   -1.300046827932   -1.840260004878
 H    1.643752293574    1.208953172068    2.114739995122
 H    2.323752293574   -1.671046827932   -0.983260004878
 H    3.147752293574   -0.415046827932    1.028739995122
 H   -2.781534706426   -1.226630827932    0.184238995122
 H   -3.879085206426    0.200000172068   -0.186063004878
