10
-1 1 
 C   -0.099805711825    0.710658422138   -0.822653115462
 C   -0.738805711825   -0.277341577862   -1.790653115462
 C    0.205194288175    0.049658422138    0.512346884538
 O    0.443194288175   -1.178341577862    0.533346884538
 O    0.199194288175    0.753658422138    1.545346884538
 H    0.828194288175    1.096658422138   -1.250653115462
 H   -0.776805711825    1.546658422138   -0.660653115462
 H   -1.607805711825   -0.713341577862   -1.313653115462
 H   -0.031805711825   -1.082341577862   -1.995653115462
 H   -1.064960711825    0.141692422138   -2.754003115462
