8
0 1 
 C   -0.369891676693    0.665123417060   -0.074551408831
 C    0.373108323307   -0.661876582940    0.070448591169
 H   -1.420891676693    0.474123417060   -0.294551408831
 H   -0.303891676693    1.231123417060    0.853448591169
 H   -0.073891676693   -1.212876582940    0.899448591169
 H    1.434508323307   -0.482376582940    0.296748591169
 H    0.250708323307   -1.273376582940   -0.835651408831
 H    0.075158323307    1.224723417060   -0.870591408831
