12
0 1 
 C   -1.362503624712   -1.623478905303   -0.638799898440
 C    0.400496375288    1.125521094697    0.963200101560
 C    0.729496375288   -0.102478905303   -0.834799898440
 C   -0.414503624712   -0.529478905303   -0.239799898440
 N    1.218496375288    0.926521094697   -0.062799898440
 N   -0.592503624712    0.252521094697    0.882200101560
 H    2.073496375288    1.440521094697   -0.249799898440
 H    0.519496375288    1.872521094697    1.739200101560
 H    1.165496375288   -0.497478905303   -1.741799898440
 H   -1.609503624712   -2.202478905303    0.250200101560
 H   -0.853503624712   -2.281478905303   -1.343799898440
 H   -2.289353624712   -1.259918905303   -1.106535898440
