7
-1 1 
 C    0.895455397894    0.233220063793    1.144312941278
 C   -0.058544602106   -0.010779936207   -0.048687058722
 O    0.435455397894    0.042220063793   -1.193687058722
 O   -1.281544602106   -0.264779936207    0.103312941278
 H    1.542455397894    1.070220063793    0.878312941278
 H    1.528455397894   -0.645779936207    1.285312941278
 H    0.392185397894    0.459190063793    2.095972941278
