16
0 1 
 C   -2.887145094903    0.078626435694   -0.519466171542
 C    0.882854905097    0.494626435694   -0.953466171542
 C   -0.489145094903    0.521626435694   -1.203466171542
 C    1.352854905097   -0.028373564306    0.240533828458
 C   -1.396145094903    0.029626435694   -0.265466171542
 C    0.444854905097   -0.518373564306    1.185533828458
 C   -0.919145094903   -0.482373564306    0.934533828458
 O    2.674854905097   -0.105373564306    0.556533828458
 H    1.576854905097    0.867626435694   -1.689466171542
 H   -0.850145094903    0.914626435694   -2.145466171542
 H    3.240854905097    0.378626435694   -0.062466171542
 H    0.827854905097   -0.938373564306    2.100533828458
 H   -3.416145094903   -0.442373564306    0.278533828458
 H   -3.076145094903   -0.463373564306   -1.445466171542
 H   -1.608145094903   -0.875373564306    1.671533828458
 H   -3.295225094903    1.095236435694   -0.619331171542
