19
0 1 
 C    2.450896327262   -0.577609172234   -0.218079710688
 C    3.160896327262    0.603390827766   -0.880079710688
 C    0.967896327262   -0.347609172234   -0.041079710688
 C    0.443896327262   -0.044609172234    1.201920289312
 C    0.105896327262   -0.404609172234   -1.128079710688
 C   -0.906103672738    0.196390827766    1.349920289312
 C   -1.254103672738   -0.157609172234   -0.999079710688
 C   -1.754103672738    0.158390827766    0.249920289312
 O   -3.078103672738    0.401390827766    0.431920289312
 H    2.602896327262   -1.477609172234   -0.814079710688
 H    2.900896327262   -0.752609172234    0.758920289312
 H    2.928896327262    1.503390827766   -0.310079710688
 H    1.092896327262   -0.001609172234    2.062920289312
 H    0.488896327262   -0.679609172234   -2.101079710688
 H   -1.298103672738    0.417390827766    2.329920289312
 H   -1.918103672738   -0.211609172234   -1.848079710688
 H   -3.305103672738    0.520390827766    1.357920289312
 H    2.829246327262    0.710670827766   -1.923389710688
 H    4.246836327262    0.433850827766   -0.835499710688
