7
-1 1 
 C   -0.557094695920   -1.276702968715   -0.347158165308
 C    0.032905304080    0.077297031285    0.017841834692
 O   -0.503094695920    1.112297031285   -0.445158165308
 O    1.030905304080    0.092297031285    0.772841834692
 H   -1.602094695920   -1.301702968715   -0.032158165308
 H   -0.028094695920   -2.072702968715    0.182841834692
 H   -0.505114695920   -1.462254968715   -1.430148165308
