11
0 1 
 C   -0.039474610442    0.038141776600   -0.530950528539
 C   -1.191474610442   -0.446858223400    0.328049471461
 C    1.222525389558    0.418141776600    0.185049471461
 H    0.230525389558   -0.781858223400   -1.192950528539
 H   -0.378474610442    0.838141776600   -1.189950528539
 H   -1.624474610442    0.407141776600    0.852049471461
 H    1.398525389558   -0.198858223400    1.063049471461
 H    2.057525389558    0.257141776600   -0.498950528539
 H   -0.879511610442   -1.215058223400    1.050929471461
 H   -1.936796610442   -0.899118223400   -0.342740528539
 H    1.232982389558    1.480241776600    0.471119471461
