9
0 1 
 C   -0.721016459648    0.741272979192   -0.997658760503
 C    0.019983540352   -0.071727020808    0.021341239497
 O   -0.377016459648   -1.208727020808    0.348341239497
 N    1.023983540352    0.503272979192    0.593341239497
 H   -0.925016459648    0.097272979192   -1.854658760503
 H   -0.102016459648    1.570272979192   -1.342658760503
 H    1.521983540352   -0.026727020808    1.294341239497
 H    1.277983540352    1.448272979192    0.354341239497
 H   -1.669916459648    1.129462979192   -0.599038760503
