13
1 1 
 C   -1.926797113125   -0.106328592994    0.081803981552
 C    0.475202886875    0.005671407006   -0.010196018448
 N   -0.601797113125   -0.313328592994    0.663803981552
 N    0.377202886875    0.659671407006   -1.132196018448
 N    1.646202886875   -0.266328592994    0.450803981552
 H   -0.501797113125   -0.849328592994    1.527803981552
 H   -2.195797113125   -0.997328592994   -0.487196018448
 H   -1.919797113125    0.741671407006   -0.605196018448
 H   -0.521797113125    0.907671407006   -1.504196018448
 H    1.207202886875    0.927671407006   -1.638196018448
 H    1.717202886875   -0.773328592994    1.338803981552
 H    2.479202886875    0.015671407006   -0.037196018448
 H   -2.732865113125    0.114062407006    0.797122981552
