11
0 1 
 C    0.084594134671    0.371784167114    0.506515592808
 C    1.078594134671    0.107784167114   -0.616484407192
 C   -1.156405865329   -0.441215832886    0.140515592808
 H   -0.129405865329    1.432784167114    0.601515592808
 H    0.481594134671    0.001784167114    1.447515592808
 H    0.835594134671    0.725784167114   -1.480484407192
 H    2.104594134671    0.277784167114   -0.296484407192
 H   -1.559405865329   -0.899215832886    1.044515592808
 H    0.886684134671   -0.955035832886   -0.825244407192
 H   -0.762495865329   -1.218445832886   -0.530864407192
 H   -1.937915865329    0.177904167114   -0.324184407192
