15
0 1 
 C   -0.908159934853   -2.278723560675   -0.038800459676
 C   -0.352159934853   -0.874723560675   -0.006800459676
 C    0.303840065147   -0.385723560675    1.116199540324
 C   -0.467159934853   -0.047723560675   -1.107800459676
 C    0.801840065147    0.915276439325    1.131199540324
 C    0.049840065147    1.238276439325   -1.098800459676
 C    0.671840065147    1.727276439325    0.021199540324
 H   -0.116159934853   -2.976723560675    0.234199540324
 H   -1.210159934853   -2.507723560675   -1.060800459676
 H    0.457840065147   -1.017723560675    1.978199540324
 H   -0.942159934853   -0.412723560675   -2.004800459676
 H    1.351840065147    1.263276439325    1.991199540324
 H   -0.044159934853    1.860276439325   -1.978800459676
 H    1.089840065147    2.723276439325    0.026199540324
 H   -1.776139934853   -2.431769660675    0.619369540324
