16
0 1 
 C    0.379440522968   -2.894272836073    0.245135021832
 C   -1.184559477032    0.564727163927    0.453135021832
 C   -0.187559477032    1.351727163927   -0.112864978168
 C   -0.998559477032   -0.809272836073    0.567135021832
 C    0.180440522968   -1.405272836073    0.126135021832
 C    0.991440522968    0.767727163927   -0.560864978168
 C    1.169440522968   -0.606272836073   -0.441864978168
 O   -0.368559477032    2.696727163927   -0.226864978168
 H   -2.095559477032    1.027727163927    0.803135021832
 H   -1.778559477032   -1.419272836073    1.004135021832
 H    1.770440522968    1.371727163927   -0.997864978168
 H    0.397440522968    3.156727163927   -0.582864978168
 H   -0.332559477032   -3.306272836073    0.958135021832
 H    1.374440522968   -3.066272836073    0.639135021832
 H    2.088440522968   -1.056272836073   -0.794864978168
 H    0.256836522968   -3.418582836073   -0.714064978168
