8
0 1 
 C    0.592786104740   -0.387826881795    0.278682862529
 C   -0.593213895260    0.378173118205   -0.285317137471
 H    1.113786104740   -0.921826881795   -0.515317137471
 H    1.268786104740    0.333173118205    0.731682862529
 H    0.277786104740   -1.086826881795    1.053682862529
 H   -0.227213895260    1.186173118205   -0.917317137471
 H   -1.107213895260    0.846173118205    0.555682862529
 H   -1.320836895260   -0.241919881795   -0.829421137471
