13
1 1 
 C   -0.336032993683   -1.762266810081   -0.810063993320
 C    0.091967006317    0.428733189919    0.223936006680
 N    0.940967006317    1.315733189919    0.720936006680
 N    0.542967006317   -0.711266810081   -0.263063993320
 N   -1.201032993683    0.691733189919    0.126936006680
 H    1.930967006317    1.150733189919    0.638936006680
 H    0.609967006317    2.208733189919    1.044936006680
 H    1.539967006317   -0.867266810081   -0.261063993320
 H   -1.834032993683    0.000733189919   -0.229063993320
 H   -1.561032993683    1.566733189919    0.473936006680
 H   -1.382032993683   -1.466266810081   -0.866063993320
 H   -0.291032993683   -2.621266810081   -0.136063993320
 H   -0.037442993683   -2.103826810081   -1.812153993320
