8
0 1 
 C    0.075333985013    0.703072081059   -0.292793399586
 C   -0.078666014987   -0.702927918941    0.296206600414
 H   -0.764666014987    1.321072081059    0.023206600414
 H    1.007333985013    1.164072081059    0.034206600414
 H    0.103333985013    0.672072081059   -1.381793399586
 H    0.772333985013   -1.294927918941   -0.039793399586
 H   -1.002856014987   -1.171811918941   -0.072613399586
 H   -0.075806014987   -0.692192918941    1.396146600414
