11
1 1 
 C   -0.569045226425   -0.161335426170    0.056774924010
 C    0.465954773575   -0.640335426170    1.073774924010
 N    0.052954773575    0.698664573830   -0.992225075990
 H   -1.006045226425   -1.038335426170   -0.422225075990
 H   -1.362045226425    0.383664573830    0.576774924010
 H    1.026954773575    0.226664573830    1.429774924010
 H    1.161954773575   -1.296335426170    0.546774924010
 H    0.778954773575    0.203664573830   -1.493225075990
 H   -0.637045226425    0.992664573830   -1.672225075990
 H    0.460954773575    1.534664573830   -0.593225075990
 H    0.068024773575   -1.168784826170    1.952634924010
