9
0 1 
 C    0.456329541078   -1.357484749368    0.315314116659
 C    0.023329541078    0.068515250632   -0.005685883341
 O    0.837329541078    0.987515250632   -0.020685883341
 N   -1.245670458922    0.277515250632   -0.297685883341
 H    1.217329541078   -1.297484749368    1.095314116659
 H    0.913329541078   -1.791484749368   -0.574685883341
 H   -1.488670458922    1.255515250632   -0.407685883341
 H   -1.965670458922   -0.353484749368   -0.002685883341
 H   -0.368782458922   -1.993999749368    0.667505116659
