9
0 1 
 C   -0.362271714776    0.735693913163   -0.260196186304
 C    0.588728285224    0.812693913163   -1.439196186304
 S   -0.086271714776   -0.723306086837    0.752803813696
 H   -0.078271714776    1.580693913163    0.350803813696
 H   -1.406271714776    0.806693913163   -0.573196186304
 H    1.616728285224    0.779693913163   -1.073196186304
 H   -0.885271714776   -0.374306086837    1.771803813696
 H    0.391218285224    1.741007913163   -1.995276186304
 H    0.402358285224   -0.024132086837   -2.128386186304
