11
0 1 
 C   -0.388121966947    0.036146072087    0.396312304342
 C   -0.611121966947   -0.771853927913   -0.889687695658
 C    0.972878033053    0.738146072087    0.515312304342
 H   -1.180121966947    0.781146072087    0.485312304342
 H   -0.478121966947   -0.645853927913    1.243312304342
 H    0.251878033053   -1.413853927913   -1.066687695658
 H    1.106878033053    1.391146072087   -0.340687695658
 H   -0.737291966947   -0.096433927913   -1.748693495658
 H   -1.472601966947   -1.446713927913   -0.778295395658
 H    1.004388033053    1.366286072087    1.417776304342
 H    1.818928033053    0.035246072087    0.526764304342
