11
0 1 
 C    0.353090146642    0.470012507927    0.015636231322
 C   -0.450909853358   -0.053987492073    1.193636231322
 C    0.117090146642   -0.375987492073   -1.205363768678
 H    0.083090146642    1.507012507927   -0.192363768678
 H    1.415090146642    0.431012507927    0.257636231322
 H   -0.246909853358   -1.122987492073    1.298636231322
 H   -0.886909853358   -0.267987492073   -1.589363768678
 H    0.831090146642   -0.098987492073   -1.979363768678
 H    0.287090146642   -1.424987492073   -0.967363768678
 H   -0.189163853358    0.430592507927    2.145826231322
 H   -1.522826853358    0.069612507927    0.979816231322
