18
0 1 
 C   -0.289712250944    1.008689211268   -1.754693697752
 C    0.466287749056    2.343689211268   -1.721693697752
 C   -0.149712250944    0.172689211268   -0.510693697752
 C   -0.863712250944    0.490689211268    0.638306302248
 C    0.672287749056   -0.957310788732   -0.501693697752
 C   -0.749712250944   -0.305310788732    1.789306302248
 C    0.792287749056   -1.750310788732    0.646306302248
 C    0.071287749056   -1.425310788732    1.789306302248
 H   -1.348712250944    1.209689211268   -1.919693697752
 H    0.063287749056    0.424689211268   -2.606693697752
 H    0.003287749056    2.998689211268   -0.982693697752
 H   -1.518712250944    1.348689211268    0.646306302248
 H    1.229287749056   -1.224310788732   -1.389693697752
 H   -1.318712250944   -0.055310788732    2.674306302248
 H    1.433287749056   -2.623310788732    0.639306302248
 H    0.139287749056   -2.049310788732    2.668306302248
 H    0.394297749056    2.800639211268   -2.719703697752
 H    1.527052749056    2.200319211268   -1.468263697752
