11
0 1 
 C   -0.532351613411    0.169402059917    0.339016786464
 C    0.828648386589    0.837402059917    0.288016786464
 C   -0.342351613411   -0.986597940083   -0.609983213536
 H   -1.323351613411    0.840402059917    0.005016786464
 H   -0.735351613411   -0.197597940083    1.348016786464
 H    0.909648386589    1.483402059917   -0.584983213536
 H    0.972648386589    1.402402059917    1.204016786464
 H   -0.360351613411   -0.645597940083   -1.645983213536
 H   -1.079351613411   -1.737597940083   -0.414983213536
 H    1.515608386589   -0.018110940083    0.209356786464
 H    0.648868386589   -1.367892940083   -0.323473213536
