8
0 1 
 C   -0.385713979582   -0.617323906207   -0.240747734000
 C    0.382286020418    0.617676093793    0.235252266000
 H   -0.361713979582   -0.672323906207   -1.328747734000
 H    0.081286020418   -1.512323906207    0.171252266000
 H   -1.414713979582   -0.586323906207    0.116252266000
 H    0.249286020418    0.697676093793    1.309252266000
 H    0.028666020418    1.549606093793   -0.229994534000
 H    1.458006020418    0.519496093793    0.027419066000
