9
0 1 
 C   -0.826881746077    1.228901677996   -0.133328143657
 C    0.891118253923   -0.551098322004    1.054671856343
 S   -0.034881746077   -0.347098322004   -0.468328143657
 H   -0.333881746077    1.736901677996    0.694671856343
 H   -0.736881746077    1.878901677996   -0.997328143657
 H   -1.878881746077    1.072901677996    0.102671856343
 H    1.651118253923    0.228901677996    1.082671856343
 H    1.390118253923   -1.521098322004    1.060671856343
 H    0.250138253923   -0.455708322004    1.943521856343
