9
0 1 
 C    0.154852110593    0.329752150857    0.421425588284
 C    0.466852110593    0.644752150857   -1.043574411716
 O   -0.557147889407   -0.889247849143    0.523425588284
 H    1.084852110593    0.261752150857    0.990425588284
 H   -0.449147889407    1.133752150857    0.834425588284
 H   -0.472147889407    0.614752150857   -1.597574411716
 H   -0.742147889407   -1.061247849143    1.455425588284
 H    1.154062110593   -0.106647849143   -1.459676411716
 H    0.864345110593    1.667392150857   -1.122350411716
