8
0 1 
 C   -0.644309376916   -0.023091004310    0.405885510771
 C    0.645690623084    0.021908995690   -0.408114489229
 H   -0.873309376916   -1.051091004310    0.682885510771
 H   -0.529309376916    0.569908995690    1.312885510771
 H   -1.466309376916    0.384908995690   -0.181114489229
 H    0.880690623084    1.059908995690   -0.628114489229
 H    0.511160623084   -0.534331004310   -1.347528489229
 H    1.460630623084   -0.415231004310    0.187526510771
