8
0 1 
 C   -0.278685927250    0.625297040756    0.334734227261
 C    0.277314072750   -0.623702959244   -0.333265772739
 H    0.418314072750    0.981297040756    1.091734227261
 H   -0.427685927250    1.391297040756   -0.416265772739
 H   -1.230685927250    0.402297040756    0.800734227261
 H   -0.349685927250   -0.870702959244   -1.185265772739
 H    0.297647072750   -1.471680259244    0.367104227261
 H    1.308431072750   -0.451488359244   -0.675525772739
