12
0 1 
 C   -0.076326705155    1.965856357578    1.012536994610
 C    0.000673294845    0.651856357578    0.288536994610
 C   -0.018326705155   -1.533143642422    0.028536994610
 C    0.093673294845    0.389856357578   -1.041463005390
 N   -0.068326705155   -0.565143642422    0.934536994610
 N    0.079673294845   -0.981143642422   -1.175463005390
 H   -0.082326705155   -2.597143642422    0.230536994610
 H    0.409673294845    2.721856357578    0.400536994610
 H    0.482673294845    1.887856357578    1.944536994610
 H    0.022673294845   -1.490143642422   -2.056463005390
 H    0.118673294845    1.121856357578   -1.837463005390
 H   -1.105366705155    2.284644357578    1.234896794610
