8
0 1 
 C   -0.489228296131    0.283857660625    0.514117305794
 C    0.486771703869   -0.282142339375   -0.517882694206
 H   -1.169228296131    0.990857660625    0.037117305794
 H   -1.067228296131   -0.529142339375    0.955117305794
 H    0.060771703869    0.790857660625    1.309117305794
 H    1.125771703869   -1.001142339375   -0.006882694206
 H    1.108121703869    0.534667660625   -0.913802694206
 H   -0.028958296131   -0.806522339375   -1.335832694206
