9
0 1 
 C   -0.601148046372   -1.339668718442    0.027061766120
 C    0.051851953628    0.048331281558    0.050061766120
 O    1.111851953628    0.237331281558    0.642061766120
 N   -0.530148046372    1.001331281558   -0.661938233880
 H   -1.304148046372   -1.384668718442   -0.807938233880
 H   -1.168148046372   -1.496668718442    0.945061766120
 H   -0.072148046372    1.900331281558   -0.713938233880
 H   -1.347148046372    0.806331281558   -1.221938233880
 H    0.152131953628   -2.129058718442   -0.112328233880
