8
0 1 
 C   -0.090312400477    0.710349364338   -0.251311657256
 C    0.096687599523   -0.710650635662    0.248688342744
 H   -1.117312400477    1.021349364338   -0.059311657256
 H    0.569687599523    1.386349364338    0.280688342744
 H    0.081687599523    0.776349364338   -1.324311657256
 H   -0.602312400477   -1.366650635662   -0.269311657256
 H    1.126635599523   -1.058266635662    0.080255642744
 H   -0.134294400477   -0.755543635662    1.323226342744
