16
0 1 
 C    2.382941074709    0.245048771156    1.702134288708
 C   -1.139058925291   -0.088951228844   -0.764865711292
 C   -0.440058925291   -1.218951228844   -0.347865711292
 C   -0.624058925291    1.159048771156   -0.459865711292
 C    0.720941074709   -1.099951228844    0.411134288708
 C    0.481941074709    1.291048771156    0.383134288708
 C    1.193941074709    0.136048771156    0.793134288708
 O   -2.287058925291   -0.299951228844   -1.551865711292
 H   -2.482058925291   -1.234951228844   -1.666865711292
 H   -0.801058925291   -2.203951228844   -0.610865711292
 H   -1.151058925291    2.033048771156   -0.807865711292
 H    1.222941074709   -1.999951228844    0.728134288708
 H    0.825941074709    2.275048771156    0.676134288708
 H    2.072941074709   -0.082951228844    2.693134288708
 H    2.680941074709    1.291048771156    1.781134288708
 H    3.249711074709   -0.357551228844    1.392984288708
