8
0 1 
 C   -0.093278206143    0.383620431851   -0.659719166114
 C    0.090721793857   -0.380379568149    0.664280833886
 H    0.750721793857    0.175620431851   -1.317719166114
 H   -0.995278206143    0.059620431851   -1.177719166114
 H   -0.143278206143    1.456620431851   -0.470719166114
 H    0.093721793857   -1.440379568149    0.421280833886
 H   -0.731411206143   -0.156227568149    1.359880833886
 H    1.055962793857   -0.133842568149    1.130680833886
