8
0 1 
 C    0.220247144681   -0.051011917851   -0.729346133781
 C   -0.229752855319    0.054988082149    0.725653866219
 H   -0.131752855319    0.801988082149   -1.306346133781
 H    1.309247144681   -0.073011917851   -0.749346133781
 H   -0.153752855319   -0.976011917851   -1.170346133781
 H    0.029247144681    1.026988082149    1.135653866219
 H    0.362247144681   -0.689011917851    1.257653866219
 H   -1.302052855319   -0.138283917851    0.876693866219
