6
0 1 
 C   -0.179716757243   -0.626271677197    0.287385635816
 O    0.148283242757    0.575728322803   -0.322614364184
 H    0.557283242757    1.137728322803    0.342385635816
 H   -0.864716757243   -0.442271677197    1.116385635816
 H   -0.655115757243   -1.305511677197   -0.435544364184
 H    0.749043242757   -1.070261677197    0.675045635816
