8
0 1 
 C   -0.741081170853    0.201093262159   -0.096939436164
 C    0.740918829147   -0.203906737841    0.089060563836
 H   -1.384081170853   -0.663906737841    0.068060563836
 H   -1.006081170853    0.966093262159    0.631060563836
 H   -0.909081170853    0.608093262159   -1.091939436164
 H    0.893918829147   -0.410906737841    1.149060563836
 H    1.381918829147    0.635093262159   -0.181939436164
 H    1.025338829147   -1.100966737841   -0.480490436164
