8
0 1 
 C   -0.108583731513   -0.384620136658    0.645497120226
 C    0.106416268487    0.374379863342   -0.650502879774
 H    0.713416268487   -1.064620136658    0.860497120226
 H   -0.123583731513    0.344379863342    1.450497120226
 H   -1.053583731513   -0.925620136658    0.611497120226
 H    1.046416268487    0.922379863342   -0.567502879774
 H   -0.695583731513    1.106379863342   -0.747502879774
 H    0.138726268487   -0.260970136658   -1.547882879774
