8
0 1 
 C   -0.207796631079    0.719661670873    0.138059272950
 C    0.209203368921   -0.719338329127   -0.142940727050
 H   -0.196796631079    1.303661670873   -0.783940727050
 H   -1.214796631079    0.737661670873    0.559059272950
 H    0.478203368921    1.169661670873    0.857059272950
 H    0.207203368921   -1.262338329127    0.803059272950
 H    1.225343368921   -0.749508329127   -0.563124727050
 H   -0.515906631079   -1.202988329127   -0.813989727050
