15
0 1 
 C    2.251744464281   -0.605647973171   -0.740735881484
 C   -1.703255535719    0.464352026829    0.558264118516
 C   -1.010255535719    1.272352026829   -0.325735881484
 C   -1.115255535719   -0.691647973171    1.030264118516
 C    0.262744464281    0.923352026829   -0.751735881484
 C    0.164744464281   -1.046647973171    0.609264118516
 C    0.869744464281   -0.232647973171   -0.274735881484
 H   -2.701255535719    0.729352026829    0.876264118516
 H   -1.468255535719    2.179352026829   -0.695735881484
 H   -1.672255535719   -1.332647973171    1.692264118516
 H    0.781744464281    1.559352026829   -1.455735881484
 H    0.606744464281   -1.964647973171    0.970264118516
 H    2.343744464281   -0.369647973171   -1.801735881484
 H    2.375744464281   -1.685647973171   -0.642735881484
 H    3.065185464281   -0.109257973171   -0.191265881484
