19
0 1 
 C    1.556515464131    2.122282745101   -1.348749559357
 C    2.129515464131    0.199282745101    0.212250440643
 C    1.243515464131    0.949282745101   -0.491749559357
 C    0.136515464131   -0.744717254899    0.592250440643
 C   -0.045484535869    0.373282745101   -0.260749559357
 C   -0.936484535869   -1.532717254899    1.018250440643
 C   -1.330484535869    0.651282745101   -0.735749559357
 C   -2.199484535869   -1.212717254899    0.551250440643
 C   -2.395484535869   -0.137717254899   -0.327749559357
 N    1.475515464131   -0.809717254899    0.879250440643
 H    3.202515464131    0.355282745101    0.230250440643
 H    1.937515464131   -1.604717254899    1.327250440643
 H    1.027515464131    2.020282745101   -2.295749559357
 H    2.624515464131    2.097282745101   -1.570749559357
 H   -0.775484535869   -2.371717254899    1.681250440643
 H   -1.461484535869    1.442282745101   -1.443749559357
 H   -3.049484535869   -1.810717254899    0.854250440643
 H   -3.393484535869    0.078282745101   -0.684749559357
 H    1.311315464131    3.095892745101   -0.899339559357
