8
0 1 
 C    0.103501200818   -0.494555444388    0.566562493886
 C   -0.110498799182    0.494444555612   -0.565437506114
 H   -0.825498799182   -1.028555444388    0.770562493886
 H    0.873501200818   -1.214555444388    0.293562493886
 H    0.430501200818    0.020444555612    1.469562493886
 H    0.805501200818    1.050444555612   -0.687437506114
 H   -0.907399799182    1.223142555612   -0.355802506114
 H   -0.293285799182   -0.049600444388   -1.503842506114
