12
0 1 
 C   -0.427985139976   -0.639027090298    0.763198779767
 C    0.314014860024   -0.097027090298    2.001198779767
 C   -0.021985139976    0.031972909702   -0.542801220233
 O    1.136014860024    0.004972909702   -0.937801220233
 N   -0.972985139976    0.634972909702   -1.228801220233
 H   -0.211985139976   -1.702027090298    0.665198779767
 H   -1.503985139976   -0.544027090298    0.917198779767
 H    1.394014860024   -0.133027090298    1.845198779767
 H    0.081014860024   -0.778027090298    2.820198779767
 H   -0.720985139976    1.053972909702   -2.110801220233
 H   -1.924985139976    0.661972909702   -0.893801220233
 H   -0.004675139976    0.923077909702    2.261620779767
