15
0 1 
 C    0.938718779822    0.191224012615   -2.251736171341
 C   -0.253281220178   -1.095775987385   -0.449736171341
 C    0.379718779822    0.088224012615   -0.856736171341
 C   -0.815281220178   -1.201775987385    0.813263828659
 C   -0.724281220178   -0.156775987385    1.697263828659
 C    0.456718779822    1.140224012615    0.034263828659
 C   -0.094281220178    1.013224012615    1.302263828659
 H   -0.319281220178   -1.932775987385   -1.131736171341
 H   -1.295281220178   -2.120775987385    1.098263828659
 H    0.926718779822    1.232224012615   -2.569736171341
 H    0.279718779822   -0.358775987385   -2.925736171341
 H   -1.143281220178   -0.241775987385    2.691263828659
 H    0.948718779822    2.059224012615   -0.249736171341
 H   -0.021281220178    1.829224012615    2.003263828659
 H    1.957158779822   -0.211381987385   -2.355096171341
