12
0 1 
 C   -2.110986268174   -0.546600573800   -0.402768573732
 C   -0.682986268174   -0.185600573800   -0.094768573732
 C   -0.126986268174    0.205399426200    1.083231426268
 C    1.455013731826    0.210399426200   -0.448768573732
 N    0.319013731826   -0.139600573800   -1.043768573732
 N    1.208013731826    0.445399426200    0.837231426268
 H   -2.669986268174    0.384399426200   -0.501768573732
 H   -2.513986268174   -1.082600573800    0.448231426268
 H   -0.642986268174    0.303399426200    2.030231426268
 H    2.418013731826    0.316399426200   -0.937768573732
 H    1.903013731826    0.736399426200    1.518231426268
 H   -2.256366268174   -1.139525573800   -1.317808573732
