8
0 1 
 C   -0.139079739118    0.335561818242   -0.674649931286
 C    0.142920260882   -0.329438181758    0.674350068714
 H    0.477920260882   -0.116438181758   -1.447649931286
 H   -1.186079739118    0.192561818242   -0.933649931286
 H    0.089920260882    1.396561818242   -0.611649931286
 H   -0.025079739118   -1.398438181758    0.549350068714
 H    1.174900260882   -0.182114181758    1.025500068714
 H   -0.577309739118    0.034953818242    1.421670068714
