16
0 1 
 C    1.951091066424    1.610036156249    1.515813783106
 C   -0.906908933576   -0.753963843751   -0.720186216894
 C   -0.577908933576   -1.104963843751    0.591813783106
 C   -0.321908933576    0.370036156249   -1.305186216894
 C    0.340091066424   -0.326963843751    1.312813783106
 C    0.595091066424    1.139036156249   -0.577186216894
 C    0.934091066424    0.800036156249    0.736813783106
 O   -1.792908933576   -1.507963843751   -1.438186216894
 H   -2.157908933576   -2.231963843751   -0.921186216894
 H   -1.028908933576   -1.971963843751    1.051813783106
 H   -0.579908933576    0.641036156249   -2.319186216894
 H    0.595091066424   -0.603963843751    2.326813783106
 H    1.059091066424    1.996036156249   -1.045186216894
 H    1.554091066424    1.775036156249    2.516813783106
 H    2.102091066424    2.564036156249    1.097813783106
 H    2.935092066424    1.126679756249    1.605857783106
