11
1 1 
 C    0.451089693950    0.151120416255    0.341483142584
 C   -0.592910306050    1.201120416255   -0.032516857416
 N    0.154089693950   -1.182879583745   -0.258516857416
 H    1.435089693950    0.498120416255    0.013483142584
 H    0.483089693950    0.060120416255    1.432483142584
 H   -0.397910306050    2.129120416255    0.493483142584
 H   -1.572910306050    0.856120416255    0.305483142584
 H   -0.015910306050   -1.145879583745   -1.267516857416
 H    0.921089693950   -1.826879583745   -0.103516857416
 H   -0.670910306050   -1.595879583745    0.159483142584
 H   -0.633970306050    1.359600416255   -1.120266857416
