11
1 1 
 C   -0.046696127091   -0.234195744075   -0.537824854607
 C   -1.301696127091    0.153804255925    0.229175145393
 N    1.189303872909    0.060804255925    0.247175145393
 H   -0.101696127091   -1.302195744075   -0.771824854607
 H   -0.022696127091    0.305804255925   -1.487824854607
 H   -1.374696127091   -0.464195744075    1.128175145393
 H   -2.175696127091   -0.052195744075   -0.392824854607
 H    1.222303872909   -0.468195744075    1.118175145393
 H    2.012303872909   -0.182195744075   -0.301824854606
 H    1.267303872909    1.057804255925    0.440175145393
 H   -1.296656127091    1.217742255925    0.508475145393
