8
0 1 
 C    0.469051425134    0.154480652200    0.600998830852
 C   -0.467948574866   -0.153519347800   -0.606001169148
 H    1.247051425134    0.846480652200    0.291998830852
 H   -0.089948574866    0.601480652200    1.419998830852
 H    0.925051425134   -0.765519347800    0.972998830852
 H   -1.073948574866   -1.023519347800   -0.348001169148
 H    0.116761425134   -0.374299347800   -1.511194169148
 H   -1.138098574866    0.703930652200   -0.766239169148
