8
0 1 
 C   -0.260872682979   -0.507314236584    0.500921038087
 C    0.258127317021    0.497685763416   -0.496078961913
 H    0.652127317021   -0.790314236584    1.009921038087
 H   -0.973872682979   -0.002314236584    1.150921038087
 H   -0.754872682979   -1.350314236584    0.017921038087
 H   -0.560872682979    0.761685763416   -1.166078961913
 H    1.084077817021    0.086495763416   -1.095018961913
 H    0.586101517021    1.409405763416    0.024681038087
