8
0 1 
 C   -0.042976537131    0.693306196203   -0.310176216467
 C    0.046023462869   -0.693693803797    0.311823783533
 H    0.932023462869    0.998306196203   -0.692176216467
 H   -0.755976537131    0.677306196203   -1.134176216467
 H   -0.385976537131    1.413306196203    0.432823783533
 H   -0.953976537131   -0.996693803797    0.612823783533
 H    0.710313462869   -0.668612803797    1.188233783533
 H    0.417313462869   -1.418996803797   -0.427146216467
