7
-1 1 
 C    1.211756558240    0.029944635810   -0.772163913626
 C   -0.075243441760    0.003944635810    0.040836086374
 O   -0.132243441760   -0.784055364190    1.014836086374
 O   -1.011243441760    0.755944635810   -0.285163913626
 H    1.313756558240   -0.933055364190   -1.280163913626
 H    2.045756558240    0.135944635810   -0.077163913626
 H    1.256186558240    0.839734635810   -1.515303913626
