9
0 1 
 C    0.950714220255    0.085047804430    1.093113602432
 C   -0.071285779745   -0.035952195570   -0.014886397568
 O   -1.109285779745   -0.674952195570    0.152113602432
 N    0.205714220255    0.585047804430   -1.159886397568
 H    1.632714220255    0.904047804430    0.860113602432
 H    1.549714220255   -0.822952195570    1.139113602432
 H   -0.451285779745    0.504047804430   -1.922886397568
 H    1.068714220255    1.097047804430   -1.270886397568
 H    0.475844220255    0.316357804430    2.057993602432
