11
0 1 
 C   -0.165187981839    0.085867662574    0.539264441480
 C   -1.091187981839   -0.478132337426   -0.550735558520
 C    1.257812018161    0.386867662574    0.050264441480
 H   -0.607187981839    1.037867662574    0.843264441480
 H   -0.195187981839   -0.530132337426    1.418264441480
 H   -1.206187981839    0.269867662574   -1.336735558520
 H   -2.072187981839   -0.655132337426   -0.107735558520
 H    1.753812018161   -0.556132337426   -0.208735558520
 H    1.189812018161    0.987867662574   -0.863735558520
 H   -0.736887981839   -1.414542337426   -1.006366558520
 H    1.856917018161    0.924597662574    0.799874441480
