11
0 1 
 C    0.252216578388   -0.281348416535    0.516281852064
 C   -0.183783421612   -0.954348416535   -0.800718147936
 C   -0.050783421612    1.211651583465    0.330281852064
 H    1.321216578388   -0.447348416535    0.652281852064
 H   -0.294783421612   -0.693348416535    1.366281852064
 H    0.394216578388   -1.855348416535   -1.004718147936
 H   -1.248783421612   -1.185348416535   -0.764718147936
 H   -0.966783421612    1.474651583465    0.863281852064
 H    0.002191578388   -0.174708416535   -1.554098147936
 H   -0.205073421612    1.319501583465   -0.753488147936
 H    0.787646578388    1.848251583465    0.649301852064
