12
0 1 
 C   -1.012244367981   -1.971297319692    0.180491539983
 C   -0.002244367981    1.531702680308    0.087491539983
 C   -0.266244367981   -0.658297319692    0.095491539983
 C    0.993755632019   -0.384297319692   -0.336508460017
 N   -0.870244367981    0.557702680308    0.354491539983
 N    1.133755632019    0.988702680308   -0.330508460017
 H   -0.197244367981    2.595702680308    0.157491539983
 H    1.946755632019    1.530702680308   -0.621508460017
 H    1.706755632019   -1.097297319692   -0.715508460017
 H   -1.470244367981   -2.131297319692   -0.797508460017
 H   -1.824244367981   -1.878297319692    0.903491539983
 H   -0.406104367981   -2.857637319692    0.419231539983
