9
0 1 
 C   -0.793835342292    0.389271583089    0.009735094756
 C   -0.454835342292    0.991271583089   -1.350264905244
 S    0.542164657708   -0.661728416911    0.626735094756
 H   -1.026835342292    1.184271583089    0.717735094756
 H   -1.688835342292   -0.227728416911   -0.100264905244
 H   -0.181835342292    0.182271583089   -2.032264905244
 H    1.533164657708    0.231271583089    0.523735094756
 H    0.380954657708    1.701651583089   -1.267664905244
 H   -1.348445342292    1.482931583089   -1.762254905244
