10
-1 1 
 C    0.341195922711   -0.337807222061    0.962833127633
 C    1.531195922711    0.596192777939    1.060833127633
 C   -0.424804077289   -0.146807222061   -0.328166872367
 O    0.169195922711    0.352192777939   -1.300166872367
 O   -1.626804077289   -0.493807222061   -0.353166872367
 H    0.710195922711   -1.364807222061    1.003833127633
 H   -0.297804077289   -0.202807222061    1.827833127633
 H    1.183195922711    1.624192777939    0.969833127633
 H    2.221195922711    0.387192777939    0.243833127633
 H    2.080335922711    0.475208777939    2.006253127633
