8
0 1 
 C   -0.667796704845    0.319507836324   -0.156011924533
 C    0.662203295155   -0.327492163676    0.152988075467
 H   -1.468796704845   -0.198492163676    0.370988075467
 H   -0.634796704845    1.349507836324    0.194988075467
 H   -0.860796704845    0.334507836324   -1.228011924533
 H    0.781203295155   -0.407492163676    1.234988075467
 H    1.449203295155    0.327507836324   -0.216011924533
 H    0.800583295155   -1.310471163676   -0.320935924533
