8
0 1 
 C    0.041491262862    0.329781218212    0.690704604216
 C   -0.038508737138   -0.334218781788   -0.690295395784
 H    0.703491262862    1.193781218212    0.662704604216
 H   -0.948508737138    0.666781218212    0.994704604216
 H    0.409491262862   -0.372218781788    1.433704604216
 H   -0.309508737138    0.436781218212   -1.412295395784
 H    0.931521262862   -0.766128781788   -0.977525395784
 H   -0.821998737138   -1.106158781788   -0.706165395784
