14
0 1 
 C   -0.249231790813    0.208027043672    0.176223966668
 C   -0.263231790813   -1.202972956328    0.797223966668
 C    1.121768209187    0.859027043672    0.347223966668
 C   -0.642231790813    0.162027043672   -1.298776033332
 H   -0.972231790813    0.820027043672    0.691223966668
 H    0.512768209187   -1.795972956328    0.308223966668
 H    1.878768209187    0.248027043672   -0.141776033332
 H    1.120768209187    1.856027043672   -0.094776033332
 H    1.362768209187    0.943027043672    1.402223966668
 H   -1.708231790813   -0.034972956328   -1.376776033332
 H   -0.449231790813    1.124027043672   -1.761776033332
 H   -0.090231790813   -0.617972956328   -1.818776033332
 H   -1.236971790813   -1.696234956328    0.661123966668
 H   -0.026115790813   -1.156846956328    1.870373966668
