15
0 1 
 C    1.890957881213    0.174791648468   -1.533548326523
 C   -0.419042118787    0.842791648468   -0.786548326523
 C    0.722957881213    0.069791648468   -0.589548326523
 C   -1.495042118787    0.736791648468    0.084451673477
 C   -1.427042118787   -0.142208351532    1.163451673477
 C    0.775957881213   -0.803208351532    0.489451673477
 C   -0.291042118787   -0.906208351532    1.364451673477
 H   -0.477042118787    1.519791648468   -1.628548326523
 H   -2.385042118787    1.329791648468   -0.077548326523
 H    2.817957881213    0.102791648468   -0.965548326523
 H    1.880957881213    1.163791648468   -1.993548326523
 H   -2.262042118787   -0.221208351532    1.847451673477
 H    1.654957881213   -1.410208351532    0.650451673477
 H   -0.240042118787   -1.576208351532    2.211451673477
 H    1.895257881213   -0.581598351532   -2.332198326523
