11
0 1 
 C    0.384827688107    0.220536016101   -0.305699387690
 C   -0.619172311893   -0.796463983899   -0.891699387690
 C    0.256827688107    0.588536016101    1.180300612310
 H    1.383827688107   -0.163463983899   -0.431699387690
 H    0.299827688107    1.135536016101   -0.892699387690
 H   -1.636172311893   -0.415463983899   -0.780699387690
 H   -0.534172311893   -1.740463983899   -0.352699387690
 H   -0.786172311893    0.855536016101    1.382300612310
 H    0.499827688107   -0.291463983899    1.784300612310
 H   -0.405970011893   -0.959826983899   -1.958399387690
 H    0.911301888107    1.429489016101    1.453180612310
