8
0 1 
 C   -0.123628776058   -0.715710121354   -0.227990971543
 C    0.119371223942    0.718289878646    0.229009028457
 H   -0.330628776058   -0.747710121354   -1.297990971543
 H    0.765371223942   -1.317710121354   -0.037990971543
 H   -0.968628776058   -1.144710121354    0.314009028457
 H    0.940371223942    1.128289878646   -0.358990971543
 H   -0.777064376058    1.338625878646    0.082089028457
 H    0.421273423942    0.712497878646    1.286753028457
