15
0 1 
 C    2.087615791844   -1.176025406375   -0.452504084777
 C   -1.517384208156   -0.032025406375   -0.688504084777
 C   -0.326384208156   -0.701025406375   -0.944504084777
 C   -1.584384208156    0.894974593625    0.339495915223
 C    0.800615791844   -0.457025406375   -0.170504084777
 C   -0.459384208156    1.143974593625    1.117495915223
 C    0.730615791844    0.473974593625    0.859495915223
 H   -2.383384208156   -0.262025406375   -1.280504084777
 H   -0.280384208156   -1.418025406375   -1.751504084777
 H   -2.509384208156    1.411974593625    0.553495915223
 H   -0.505384208156    1.864974593625    1.919495915223
 H    2.908615791844   -0.508025406375   -0.184504084777
 H    2.169615791844   -1.384025406375   -1.516504084777
 H    1.599615791844    0.681974593625    1.465495915223
 H    2.199928791844   -2.135008406375    0.074505915223
