8
1 1 
 C   -0.122597947332    0.079851577057    0.764317043830
 N    0.109402052668   -0.075148422943   -0.677682956170
 H   -0.655597947332    0.362851577057   -1.202682956170
 H    0.973402052668    0.368851577057   -0.961682956170
 H    0.147402052668   -1.047148422943   -0.952682956170
 H   -0.120597947332    1.145851577057    1.014317043830
 H    0.682402052668   -0.395148422943    1.335317043830
 H   -1.087327947332   -0.341898422943    1.082787043830
