11
1 1 
 C    0.035526824517    0.145852024095    0.563288160255
 C   -0.846473175483    0.972852024095   -0.363711839745
 N    0.716526824517   -0.981147975905   -0.145711839745
 H    0.797526824517    0.806852024095    0.991288160255
 H   -0.579473175483   -0.233147975905    1.388288160255
 H   -1.787473175483    0.444852024095   -0.525711839745
 H   -0.350473175483    1.115852024095   -1.326711839745
 H    1.317526824517   -0.644147975905   -0.887711839745
 H    1.294526824517   -1.520147975905    0.488288160255
 H    0.046526824517   -1.619147975905   -0.558711839745
 H   -1.038563175483    1.961232024095    0.079233160255
