8
0 1 
 C    0.161601279555    0.323126345743    0.669053224892
 C   -0.158398720445   -0.323873654257   -0.669946775108
 H    0.617601279555    1.301126345743    0.514053224892
 H   -0.761398720445    0.468126345743    1.231053224892
 H    0.830601279555   -0.315873654257    1.246053224892
 H   -0.770398720445    0.360126345743   -1.256946775108
 H    0.771821279555   -0.551933654257   -1.210956775108
 H   -0.726358720445   -1.252673654257   -0.512616775108
