15
0 1 
 C    0.479256724070   -1.927146973574    1.436428305796
 C    0.848256724070   -0.576146973574   -0.656571694204
 C    0.178256724070   -0.742146973574    0.550428305796
 C    0.581256724070    0.514853026426   -1.475571694204
 C   -0.759743275930    0.211853026426    0.931428305796
 C   -0.360743275930    1.455853026426   -1.087571694204
 C   -1.033743275930    1.302853026426    0.116428305796
 H    1.550256724070   -1.323146973574   -0.969571694204
 H    1.098256724070    0.622853026426   -2.420571694204
 H    0.313256724070   -1.635146973574    2.470428305796
 H    1.540256724070   -2.153146973574    1.347428305796
 H   -1.260743275930    0.120853026426    1.873428305796
 H   -0.569743275930    2.306853026426   -1.715571694204
 H   -1.769743275930    2.033853026426    0.419428305796
 H   -0.101623275930   -2.830266973574    1.197787305796
