13
1 1 
 C    1.332335343288   -1.483476318015    0.064153626364
 C   -0.329664656712    0.360523681985   -0.008846373636
 N   -0.010664656712   -0.907476318015    0.201153626364
 N    0.589335343288    1.233523681985   -0.371846373636
 N   -1.579664656712    0.750523681985    0.135153626364
 H   -0.798664656712   -1.527476318015    0.407153626364
 H    1.553335343288    0.965523681985   -0.487846373636
 H    0.320335343288    2.183523681985   -0.579846373636
 H   -2.263664656712    0.033523681985    0.374153626364
 H   -1.863664656712    1.706523681985   -0.011846373636
 H    1.321335343288   -2.477476318015    0.517153626364
 H    2.067335343288   -0.884476318015    0.605153626364
 H    1.633185343288   -1.587116318015   -0.988816373636
