8
0 1 
 C   -0.230740829225    0.469943314570    0.549906183936
 C    0.230259170775   -0.470056685430   -0.550093816064
 H   -1.291740829225    0.694943314570    0.437906183936
 H   -0.065740829225    0.012943314570    1.523906183936
 H    0.335259170775    1.401943314570    0.501906183936
 H    1.290259170775   -0.659056685430   -0.425093816064
 H    0.058729170775   -0.029186685430   -1.543175816064
 H   -0.321030829225   -1.420236685430   -0.493214816064
