8
1 1 
 C   -0.419586501263   -0.373950546191   -0.572632667707
 N    0.372413498737    0.329049453809    0.506367332293
 H   -0.245586501263    0.788049453809    1.167367332293
 H    0.941413498737   -0.322950546191    1.035367332293
 H    0.973413498737    1.053049453809    0.104367332293
 H   -1.136586501263   -1.072950546191   -0.126632667707
 H    0.250413498737   -0.939950546191   -1.229632667707
 H   -0.961566501263    0.375389453809   -1.168242667707
