7
-1 1 
 C    1.052453851470    0.421766919446   -0.888668864202
 C   -0.058546148530   -0.027233080554    0.050331135798
 O   -0.667546148530   -1.093233080554   -0.197668864202
 O   -0.328546148530    0.692766919446    1.038331135798
 H    1.994453851470    0.522766919446   -0.345668864202
 H    0.785453851470    1.405766919446   -1.282668864202
 H    1.194511151470   -0.270492080554   -1.731638864202
