18
0 1 
 C   -2.035122211914    0.093941332478   -0.162906530669
 C   -2.423122211914    1.570941332478   -0.286906530669
 C   -0.553122211914   -0.128058667522   -0.032906530669
 C    0.061877788086   -0.057058667522    1.212093469331
 C    0.220877788086   -0.387058667522   -1.159906530669
 C    1.431877788086   -0.253058667522    1.330093469331
 C    1.590877788086   -0.583058667522   -1.045906530669
 C    2.198877788086   -0.514058667522    0.200093469331
 H   -2.536122211914   -0.338058667522    0.704093469331
 H   -2.386122211914   -0.440058667522   -1.039906530669
 H   -2.189122211914    2.067941332478    0.657093469331
 H   -0.529122211914    0.146941332478    2.094093469331
 H   -0.242122211914   -0.441058667522   -2.134906530669
 H    1.899877788086   -0.207058667522    2.303093469331
 H    2.183877788086   -0.782058667522   -1.928906530669
 H    3.266877788086   -0.658058667522    0.289093469331
 H   -3.498632211914    1.667131332478   -0.496706530669
 H   -1.839722211914    2.049981332478   -1.087006530669
