15
0 1 
 C   -2.232042756243    0.026292203460   -1.017321124793
 C    1.539957243757    0.330292203460   -0.569321124793
 C    0.266957243757    0.336292203460   -1.149321124793
 C    1.692957243757   -0.012707796540    0.773678875207
 C   -0.860042756243    0.001292203460   -0.392321124793
 C    0.571957243757   -0.346707796540    1.534678875207
 C   -0.698042756243   -0.337707796540    0.951678875207
 H    2.403957243757    0.606292203460   -1.156321124793
 H    0.157957243757    0.607292203460   -2.190321124793
 H    2.673957243757   -0.021707796540    1.217678875207
 H    0.681957243757   -0.604707796540    2.577678875207
 H   -2.905042756243   -0.638707796540   -0.474321124793
 H   -2.138042756243   -0.368707796540   -2.030321124793
 H   -1.557042756243   -0.577707796540    1.557678875207
 H   -2.671862756243    1.033134203460   -1.070502124793
