11
0 1 
 C    0.004051954092   -0.325025539461    0.488437201302
 C    0.882051954092    0.896974460539    0.261437201302
 C   -0.894948045908   -0.593025539461   -0.715562798698
 H    0.679051954092   -1.170025539461    0.611437201302
 H   -0.591948045908   -0.204025539461    1.394437201302
 H    1.388051954092    0.792974460539   -0.697562798698
 H    1.636051954092    0.937974460539    1.047437201302
 H   -1.606948045908    0.230974460539   -0.829562798698
 H   -0.271948045908   -0.614025539461   -1.618562798698
 H    0.298061954092    1.828484460539    0.296767201302
 H   -1.425068045908   -1.551375539461   -0.612932798698
