10
-1 1 
 C   -0.543709837246    0.775258668488   -0.547679318181
 C   -1.837709837246    0.643258668488    0.244320681819
 C    0.515290162754   -0.200741331512   -0.043679318181
 O    0.212290162754   -1.407741331512    0.071320681819
 O    1.653290162754    0.231258668488    0.231320681819
 H   -0.748709837246    0.577258668488   -1.602679318181
 H   -0.188709837246    1.806258668488   -0.461679318181
 H   -1.594709837246    0.791258668488    1.295320681819
 H   -2.230709837246   -0.360741331512    0.134320681819
 H   -2.625589837246    1.357748668488   -0.036299318181
