16
0 1 
 C   -0.069318559950    2.781062927833   -0.987259324546
 C   -1.025318559950    0.889062927833    0.405740675454
 C   -0.057318559950    1.338062927833   -0.513259324546
 C   -0.968318559950   -0.420937072167    0.891740675454
 C    0.975681440050    0.454062927833   -0.892259324546
 C    0.003681440050   -1.296937072167    0.453740675454
 C    1.022681440050   -0.869937072167   -0.399259324546
 O    0.044681440050   -2.552937072167    0.949740675454
 H   -1.838318559950    1.538062927833    0.684740675454
 H   -1.597318559950   -0.838937072167    1.636740675454
 H   -1.048318559950    3.228062927833   -0.809259324546
 H    0.114681440050    2.792062927833   -2.060259324546
 H    1.756681440050    0.800062927833   -1.551259324546
 H    1.819681440050   -1.535937072167   -0.699259324546
 H    0.782681440050   -3.059937072167    0.595740675454
 H    0.708846440050    3.368052927833   -0.477449324546
