8
0 1 
 C    0.155741601619    0.448600004036    0.587937399742
 C   -0.149258398381   -0.451399995964   -0.590062600258
 H    1.230741601619    0.504600004036    0.753937399742
 H   -0.227258398381    1.448600004036    0.386937399742
 H   -0.331258398381    0.068600004036    1.486937399742
 H   -1.227258398381   -0.413399995964   -0.747062600258
 H    0.141379601619   -1.483985995964   -0.346552600258
 H    0.336459601619   -0.091074995964   -1.508892600258
