15
0 1 
 C   -1.799144180781    0.156599047692    1.643723000544
 C   -0.864144180781   -0.688400952308   -0.532276999456
 C   -0.698144180781    0.058599047692    0.627723000544
 C    0.161855819219   -0.773400952308   -1.471276999456
 C    0.510855819219    0.712599047692    0.848723000544
 C    1.372855819219   -0.116400952308   -1.245276999456
 C    1.544855819219    0.623599047692   -0.079276999456
 H   -1.794144180781   -1.209400952308   -0.711276999456
 H    0.020855819219   -1.342400952308   -2.379276999456
 H   -2.761144180781    0.149599047692    1.130723000544
 H   -1.722144180781    1.117599047692    2.153723000544
 H    0.656855819219    1.291599047692    1.750723000544
 H    2.171855819219   -0.175400952308   -1.972276999456
 H    2.481855819219    1.131599047692    0.105723000544
 H   -1.780544180781   -0.644010952308    2.397833000544
