6
0 1 
 C    0.132201840492   -0.651054502422    0.285631808698
 O   -0.158798159508    0.588945497578   -0.307368191302
 H    0.339201840492    1.324945497578    0.128631808698
 H   -0.268798159508   -1.459054502422   -0.328368191302
 H   -0.342798159508   -0.689054502422    1.267631808698
 H    1.218531840492   -0.771834502422    0.409291808698
