15
0 1 
 C   -0.297881193536    1.332581517997    2.030453553504
 C   -0.102881193536    0.517581517997    0.779453553504
 C    0.409118806464   -0.776418482003    0.848453553504
 C   -0.459881193536    1.035581517997   -0.457546446496
 C    0.577118806464   -1.535418482003   -0.307546446496
 C   -0.298881193536    0.275581517997   -1.613546446496
 C    0.219118806464   -1.012418482003   -1.538546446496
 H   -0.358881193536    0.643581517997    2.872453553504
 H   -1.256881193536    1.847581517997    1.971453553504
 H    0.685118806464   -1.196418482003    1.805453553504
 H   -0.865881193536    2.034581517997   -0.523546446496
 H    0.988118806464   -2.526418482003   -0.267546446496
 H   -0.585881193536    0.680581517997   -2.573546446496
 H    0.346118806464   -1.603418482003   -2.434546446496
 H    0.502458806464    2.059901517997    2.231611553504
