15
0 1 
 C   -0.718377932107    2.336081957147   -0.185216612327
 C    0.595622067893    0.345081957147   -1.011216612327
 C   -0.285377932107    0.889081957147   -0.081216612327
 C    0.993622067893   -0.980918042853   -0.910216612327
 C   -0.723377932107    0.096081957147    0.975783387673
 C    0.534622067893   -1.766918042853    0.140783387673
 C   -0.313377932107   -1.217918042853    1.092783387673
 H    0.969622067893    0.951081957147   -1.823216612327
 H    1.655622067893   -1.403918042853   -1.649216612327
 H   -0.083377932107    2.836081957147   -0.910216612327
 H   -0.563377932107    2.823081957147    0.776783387673
 H   -1.363377932107    0.511081957147    1.740783387673
 H    0.826622067893   -2.802918042853    0.209783387673
 H   -0.674377932107   -1.820918042853    1.911783387673
 H   -1.759841932107    2.471643957147   -0.512286612327
