13
1 1 
 C   -0.367256719281    1.519794855612   -1.201464667957
 C    0.101743280719   -0.382205144388    0.286535332043
 N   -0.358256719281    0.317794855612    1.308535332043
 N    0.088743280719    0.148794855612   -0.930464667957
 N    0.541743280719   -1.603205144388    0.485535332043
 H   -0.823256719281    1.189794855612    1.137535332043
 H   -0.399256719281   -0.106205144388    2.221535332043
 H    0.406743280719   -0.427205144388   -1.709464667957
 H    0.970743280719   -2.076205144388   -0.312464667957
 H    0.695743280719   -1.941205144388    1.417535332043
 H   -1.241256719281    1.772794855612   -0.599464667957
 H   -0.670256719281    1.592794855612   -2.248464667957
 H    0.439763280719    2.242883155612   -1.012084667957
