6
0 1 
 C   -0.310660511774    0.603047612460    0.275328809817
 O    0.242339488226   -0.591952387540   -0.270671190183
 H    1.204339488226   -0.497952387540   -0.249671190183
 H    0.078339488226    0.731047612460    1.285328809817
 H   -0.023790511774    1.465814612460   -0.343811190183
 H   -1.406010511774    0.515419512460    0.325608809817
