18
0 1 
 C   -1.201159189291   -0.090197753371    1.664390569977
 C   -1.740159189291   -1.530197753371    1.734390569977
 C   -0.295159189291    0.144802246629    0.484390569977
 C   -0.821159189291    0.325802246629   -0.792609430023
 C    1.074840810709    0.135802246629    0.633390569977
 C    0.013840810709    0.487802246629   -1.895609430023
 C    1.921840810709    0.302802246629   -0.464609430023
 C    1.387840810709    0.481802246629   -1.726609430023
 H   -2.034159189291    0.609802246629    1.613390569977
 H   -0.656159189291    0.125802246629    2.582390569977
 H   -0.893159189291   -2.208197753371    1.740390569977
 H   -1.887159189291    0.327802246629   -0.945609430023
 H    1.505840810709   -0.023197753371    1.611390569977
 H   -0.411159189291    0.614802246629   -2.881609430023
 H    2.992840810709    0.277802246629   -0.329609430023
 H    2.040840810709    0.600802246629   -2.578609430023
 H   -2.376929189291   -1.734416753371    0.861000569977
 H   -2.337769189291   -1.667939753371    2.647570569977
