8
0 1 
 C   -0.111214617810   -0.756930020574   -0.057603448271
 C    0.101785382190    0.759069979426    0.056396551729
 H   -0.687214617810   -1.022930020574   -0.939603448271
 H    0.849785382190   -1.263930020574   -0.124603448271
 H   -0.615214617810   -1.143930020574    0.827396551729
 H    0.583785382190    1.108069979426   -0.856603448271
 H    0.791785382190    0.948069979426    0.880396551729
 H   -0.810654617810    1.349169979426    0.227387551729
