9
0 1 
 C   -0.332977199906    1.334385527795    0.478376229578
 C    0.068022800094   -0.041614472205   -0.026623770422
 O    1.238022800094   -0.318614472205   -0.275623770422
 N   -0.908977199906   -0.918614472205   -0.186623770422
 H   -0.647977199906   -1.886614472205   -0.317623770422
 H   -1.852977199906   -0.678614472205    0.087376229578
 H   -1.100977199906    1.206385527795    1.243376229578
 H   -0.770977199906    1.899385527795   -0.345623770422
 H    0.509002800094    1.886848527795    0.920921229578
