8
0 1 
 C    0.080171430564   -0.749709635468   -0.122409481576
 C   -0.085828569436    0.749290364532    0.126590518424
 H   -0.807828569436   -1.153709635468   -0.612409481576
 H    0.939171430564   -0.904709635467   -0.776409481576
 H    0.262171430564   -1.294709635468    0.804590518424
 H    0.818171430564    1.133290364532    0.589590518424
 H   -0.950968569436    0.946530364532    0.776691518424
 H   -0.193358569436    1.278300364532   -0.831836481576
