16
0 1 
 C    2.402635374375    1.249745690608    1.144086017571
 C   -1.133364625625   -0.578254309392   -0.534913982429
 C   -1.151364625625   -0.056254309392    0.761086017571
 C    0.052635374375   -0.547254309392   -1.264913982429
 C    0.003635374375    0.511745690608    1.299086017571
 C    1.195635374375    0.038745690608   -0.737913982429
 C    1.186635374375    0.575745690608    0.561086017571
 O   -2.242364625625   -1.103254309392   -1.131913982429
 H   -3.031364625625   -1.023254309392   -0.565913982429
 H   -2.064364625625   -0.077254309392    1.339086017571
 H    0.070635374375   -0.983254309392   -2.250913982429
 H   -0.024364625625    0.924745690608    2.298086017571
 H    2.099635374375    0.080745690608   -1.331913982429
 H    2.070635374375    1.952745690608    1.907086017571
 H    2.881635374375    1.844745690608    0.365086017571
 H    3.146322374375    0.570855690608    1.586846017571
