8
0 1 
 C    0.445581138247   -0.249095119379   -0.575758985828
 C   -0.439418861753    0.243904880621    0.579241014172
 H    0.750581138247   -1.283095119379   -0.420758985828
 H   -0.115418861753   -0.184095119379   -1.505758985828
 H    1.318581138247    0.393904880621   -0.666758985828
 H   -1.394418861753   -0.277095119379    0.557241014172
 H   -0.654418861753    1.298904880621    0.425241014172
 H    0.021721138247    0.113274880621    1.569335014172
