8
0 1 
 C    0.064409224736   -0.402006233941    0.642375470318
 C   -0.066590775264    0.396993766059   -0.646624529682
 H    0.505409224736   -1.378006233941    0.438375470318
 H    0.719409224736    0.127993766059    1.333375470318
 H   -0.914590775264   -0.529006233941    1.104375470318
 H    0.914409224736    0.461993766059   -1.118624529682
 H   -0.397590775264    1.389993766059   -0.351624529682
 H   -0.801070775264   -0.013286233941   -1.355284529682
