12
0 1 
 C   -0.138643250112   -0.246882850239   -0.240268154098
 C   -0.121643250112    1.131117149761   -0.926268154098
 C    1.350356749888   -0.595882850239    0.139731845902
 O   -1.054643250112   -0.266882850239    0.889731845902
 H   -0.466643250112   -0.989882850239   -0.967268154098
 H    0.594356749888    1.080117149761   -1.747268154098
 H    1.680356749888    0.023117149761    0.975731845902
 H    1.410356749888   -1.642882850239    0.435731845902
 H    2.012356749888   -0.420882850239   -0.704268154098
 H   -0.535643250112   -0.505882850239    1.685731845902
 H    0.162736749888    1.902477149761   -0.195428154098
 H   -1.099203250112    1.356093149761   -1.377668154098
