10
-1 1 
 C    0.180223870979   -0.565710556672    0.896079310512
 C   -0.919776129021    0.063289443328    1.760079310512
 C    0.236223870979    0.011289443328   -0.508920689488
 O   -0.829776129021    0.332289443328   -1.073920689488
 O    1.353223870979    0.127289443328   -1.054920689488
 H    1.139223870979   -0.402710556672    1.391079310512
 H    0.012223870979   -1.641710556672    0.836079310512
 H   -0.763776129021   -0.320710556672    2.768079310512
 H   -1.911276129021   -0.233934556672    1.387799010512
 H   -0.790846129021    1.153036443328    1.836426410512
