11
0 1 
 C    0.310204402980    0.253392852395    0.488015793741
 C   -0.428795597020    0.975392852395   -0.600984206259
 C    0.140204402980   -1.206607147605    0.151015793741
 H   -0.078795597020    0.496392852395    1.478015793741
 H    1.367204402980    0.507392852395    0.418015793741
 H   -1.442795597020    1.208392852395   -0.272984206259
 H    0.113204402980    1.884392852395   -0.831984206259
 H   -0.716795597020   -1.585607147605    0.713015793741
 H    1.027204402980   -1.776607147605    0.430015793741
 H   -0.470455597020    0.287995752395   -1.458742206259
 H   -0.056115597020   -1.286429147605   -0.928376206259
