19
0 1 
 C   -2.047836050777   -0.411498968831   -1.403314135687
 C   -1.787836050777   -1.094498968831   -2.739314135687
 C   -0.853836050777   -0.138498968831   -0.523314135687
 C   -0.317836050777    1.153501031169   -0.424314135687
 C   -0.305836050777   -1.156498968831    0.267685864313
 C    0.754163949223    1.421501031169    0.439685864313
 C    0.760163949223   -0.895498968831    1.130685864313
 C    1.291163949223    0.394501031169    1.212685864313
 O    2.323163949223    0.681501031169    2.052685864313
 H   -2.579836050777    0.523501031169   -1.574314135687
 H   -2.724836050777   -1.045498968831   -0.828314135687
 H   -1.220836050777   -2.014498968831   -2.591314135687
 H   -0.736836050777    1.956501031169   -1.015314135687
 H   -0.719836050777   -2.154498968831    0.215685864313
 H    1.156163949223    2.421501031169    0.507685864313
 H    1.183163949223   -1.681498968831    1.735685864313
 H    2.673163949223    1.551501031169    1.843685864313
 H   -1.264082050777   -0.406738968831   -3.419514135687
 H   -2.777911050777   -1.310018968831   -3.167454135687
