9
0 1 
 C    0.193249319299    1.493284702847   -0.128990261699
 C   -0.580750680701   -0.945715297153    1.026009738301
 S    0.195249319299   -0.276715297153   -0.457990261699
 H    0.662249319299    1.687284702847    0.834009738301
 H    0.749249319299    2.010284702847   -0.909990261699
 H   -0.830750680701    1.868284702847   -0.121990261699
 H    0.016249319299   -0.651715297153    1.891009738301
 H   -0.558750680701   -2.034715297153    0.963009738301
 H   -1.618390680701   -0.620769297153    1.192499738301
