8
0 1 
 C    0.670265679784    0.363015692693    0.047136162897
 C   -0.672734320216   -0.357984307307   -0.043863837103
 H    0.661265679784    1.069015692693    0.877136162897
 H    1.464265679784   -0.365984307307    0.212136162897
 H    0.886265679784    0.891015692693   -0.880863837103
 H   -0.635734320216   -0.996984307307   -0.924863837103
 H   -1.508001320216    0.349662692693   -0.151413837103
 H   -0.838667720216   -1.006633307307    0.828906162897
