8
0 1 
 C   -0.095845953644    0.652775148105    0.400968470826
 C    0.100154046356   -0.651224851895   -0.401031529174
 H    0.748154046356    1.324775148105    0.244968470826
 H   -1.007845953644    1.150775148105    0.071968470826
 H   -0.177845953644    0.422775148105    1.463968470826
 H   -0.781845953644   -1.278224851895   -0.251031529174
 H    0.986454046356   -1.201494851895   -0.052221529174
 H    0.181634046356   -0.437064851895   -1.476901529174
