9
0 1 
 C   -0.218190910305    0.296730210290    1.402213593337
 C   -0.037190910305   -0.043269789710   -0.061786406663
 O   -0.789190910305   -0.833269789710   -0.631786406663
 N    0.973809089695    0.547730210290   -0.678786406663
 H    1.155809089695    0.317730210290   -1.641786406663
 H    1.598809089695    1.158730210290   -0.158786406663
 H    0.317809089695    1.212730210290    1.640213593337
 H    0.237809089695   -0.510269789710    1.975213593337
 H   -1.274860910305    0.417410210290    1.683113593337
