8
0 1 
 C    0.108292270662   -0.662131483365   -0.369956837611
 C   -0.109707729338    0.661868516635    0.369043162389
 H   -0.465707729338   -0.658131483365   -1.294956837611
 H    1.166292270662   -0.787131483365   -0.596956837611
 H   -0.224707729338   -1.492131483365    0.255043162389
 H    0.232292270662    1.482868516635   -0.254956837611
 H    0.479292270662    0.646868516635    1.284043162389
 H   -1.170607729338    0.810788516635    0.618663162389
