7
-1 1 
 C    1.092745005639   -0.855525579483    0.336778757171
 C   -0.068254994361    0.050474420517   -0.014221242829
 O   -1.214254994361   -0.433525579483   -0.006221242829
 O    0.182745005639    1.239474420517   -0.312221242829
 H    1.714745005639   -0.392525579483    1.105778757171
 H    1.703745005639   -0.964525579483   -0.560221242829
 H    0.753895005639   -1.848335579483    0.667718757171
