7
-1 1 
 C    0.629435785835   -0.464481525599   -1.203580136036
 C   -0.046564214165   -0.006481525599    0.077419863964
 O   -1.233564214165   -0.217481525599    0.263419863964
 O    0.639435785835    0.678518474401    0.868419863964
 H    1.349435785835   -1.246481525599   -0.958580136036
 H    1.199435785835    0.369518474401   -1.617580136036
 H   -0.059774214165   -0.832351525599   -1.977960136036
