15
0 1 
 C   -1.321644874903    0.568222913885   -1.984419266964
 C   -0.524644874903    0.223222913885   -0.750419266964
 C    0.601355125097    0.978222913885   -0.421419266964
 C   -0.885644874903   -0.859777086115    0.062580733036
 C    1.379355125097    0.655222913885    0.688580733036
 C   -0.112644874903   -1.194777086115    1.173580733036
 C    1.023355125097   -0.434777086115    1.490580733036
 H   -1.768644874903   -0.349777086115   -2.365419266964
 H   -0.637644874903    0.928222913885   -2.751419266964
 H    0.887355125097    1.814222913885   -1.043419266964
 H   -1.756644874903   -1.451777086115   -0.177419266964
 H    2.257355125097    1.239222913885    0.927580733036
 H   -0.389644874903   -2.035777086115    1.792580733036
 H    1.620355125097   -0.692777086115    2.351580733036
 H   -2.111456874903    1.315710913885   -1.818709266964
