8
0 1 
 C    0.297531624053    0.670956183080    0.209342606159
 C   -0.298468375947   -0.673043816920   -0.206657393841
 H    1.292531624053    0.786956183080   -0.221657393841
 H   -0.335468375947    1.480956183080   -0.154657393841
 H    0.363531624053    0.729956183080    1.296342606159
 H   -0.343468375947   -0.693043816920   -1.295657393841
 H    0.351499624053   -1.483513816920    0.154837606159
 H   -1.317472375947   -0.796453816920    0.188819606159
