11
0 1 
 C   -0.057528583153   -0.151211247802   -0.612163974661
 C    0.834471416847   -0.838211247802    0.347836025339
 C   -0.795528583153    0.983788752198    0.216836025339
 H    0.675471416847    0.128788752198   -1.364163974661
 H   -0.782528583153   -0.825211247802   -1.068163974661
 H    1.487471416847   -0.111211247802    0.837836025339
 H    1.478471416847   -1.532211247802   -0.196163974661
 H   -1.666528583153    0.588788752198    0.737836025339
 H   -0.118528583153    1.413788752198    0.959836025339
 H    0.262291416847   -1.400271247802    1.100626025339
 H   -1.114822583153    1.804618752198   -0.442163974661
