9
0 1 
 C    0.313942343836   -0.910091281572    1.092390936961
 C   -0.054057656164    0.004908718428   -0.059609063039
 O   -0.907057656164   -0.317091281572   -0.887609063039
 N    0.599942343836    1.150908718428   -0.140609063039
 H    0.406942343836    1.746908718428   -0.932609063039
 H    1.300942343836    1.435908718428    0.537390936961
 H    0.739942343836   -0.319091281572    1.904390936961
 H    1.085942343836   -1.596091281572    0.765390936961
 H   -0.568317656164   -1.448441281572    1.468950936961
