11
0 1 
 C   -0.369335787017   -0.441050978318    0.036894294724
 C    0.852664212983   -0.436050978318   -0.874105705276
 C   -0.508335787017    0.848949021682    0.839894294724
 H   -1.269335787017   -0.597050978318   -0.560105705276
 H   -0.258335787017   -1.286050978318    0.711894294724
 H    0.967664212983   -1.421050978318   -1.326105705276
 H    0.376664212983    0.996949021682    1.459894294724
 H   -0.608335787017    1.703949021682    0.170894294724
 H    1.757552872983   -0.173000978318   -0.306671705276
 H    0.707293212983    0.277719021682   -1.698360705276
 H   -1.375408787017    0.833749021682    1.516616294724
