13
1 1 
 C    1.697349559008   -0.284427323485   -1.005460934872
 C   -0.413650440992    0.074572676515    0.244539065128
 N    0.521349559008    0.486572676515   -0.600460934872
 N   -0.352650440992   -1.119427323485    0.803539065128
 N   -1.425650440992    0.871572676515    0.523539065128
 H    0.379349559008    1.398572676515   -1.023460934872
 H    0.437349559008   -1.715427323485    0.625539065128
 H   -1.052650440992   -1.409427323485    1.467539065128
 H   -1.495650440992    1.751572676515    0.026539065128
 H   -2.131650440992    0.600572676515    1.190539065128
 H    1.848349559008   -1.160427323485   -0.373460934872
 H    2.590349559008    0.334572676515   -0.899460934872
 H    1.604289559008   -0.618137323485   -2.049480934872
