7
-1 1 
 C    0.082662645638    1.424319351126   -0.226945184976
 C   -0.016337354362   -0.078680648874    0.011054815024
 O    0.023662645638   -0.500680648874    1.184054815024
 O   -0.098337354362   -0.846680648874   -0.969945184976
 H    1.129662645638    1.675319351126   -0.080945184976
 H   -0.517337354362    1.974319351126    0.499054815024
 H   -0.216907354362    1.711673351126   -1.245615184976
