9
0 1 
 C    0.181333883951    1.266739444679    0.676341593839
 C   -0.026666116049   -0.029260555321   -0.071658406161
 O   -0.588666116049   -0.049260555321   -1.171658406161
 N    0.412333883951   -1.123260555321    0.522341593839
 H    1.226333883951    1.558739444679    0.583341593839
 H   -0.027666116049    1.107739444679    1.734341593839
 H    0.183333883951   -2.009260555321    0.104341593839
 H    0.855333883951   -1.070260555321    1.427341593839
 H   -0.465491116049    2.067369444679    0.288246593839
