6
0 1 
 C   -0.303266438236    0.020854121345    0.659230028969
 O    0.324733561764   -0.052145878655   -0.601769971031
 H   -0.135266438236    0.490854121345   -1.262769971031
 H    0.184733561764   -0.678145878655    1.337230028969
 H   -1.350266438236   -0.268145878655    0.545230028969
 H   -0.242016438236    1.034724121345    1.081497028969
