8
0 1 
 C   -0.695389580807   -0.309246105825    0.056533999766
 C    0.695610419193    0.312753894175   -0.058466000234
 H   -0.853389580807   -1.035246105825   -0.737466000234
 H   -0.797389580807   -0.823246105825    1.012533999766
 H   -1.458389580807    0.467753894175   -0.011466000234
 H    1.426610419193   -0.494246105825   -0.075466000234
 H    0.781512419193    0.899751894175   -0.984776000234
 H    0.898416419193    0.943465894175    0.819643999766
