14
0 1 
 C   -0.027072506771    0.284540904159   -0.225037692881
 C    1.001927493229   -0.701459095841   -0.826037692881
 C   -1.414072506771   -0.335459095841   -0.139037692881
 C    0.430927493229    0.780540904159    1.159962307119
 H   -0.089072506771    1.146540904159   -0.890037692881
 H    1.918927493229   -0.128459095841   -0.940037692881
 H   -1.422072506771   -1.168459095841    0.561962307119
 H   -2.119072506771    0.417540904159    0.211962307119
 H   -1.747072506771   -0.680459095841   -1.116037692881
 H    1.423927493229    1.225540904159    1.080962307119
 H   -0.260072506771    1.545540904159    1.515962307119
 H    0.452927493229   -0.033459095841    1.882962307119
 H    0.715742493229   -1.121746495841   -1.801463692881
 H    1.224545493229   -1.537920095841   -0.147234692881
