18
0 1 
 C   -1.560905883740    0.514824436295   -1.225335251351
 C   -2.695905883740    1.006824436295   -0.332335251351
 C   -0.334905883740    0.100824436295   -0.452335251351
 C    0.605094116260    1.044824436295   -0.058335251351
 C   -0.135905883740   -1.230175563705   -0.104335251351
 C    1.728094116260    0.661824436295    0.666664748649
 C    0.981094116260   -1.620175563705    0.619664748649
 C    1.917094116260   -0.672175563705    1.007664748649
 H   -1.916905883740   -0.333175563705   -1.812335251351
 H   -1.288905883740    1.307824436295   -1.924335251351
 H   -2.361905883740    1.933824436295    0.137664748649
 H    0.463094116260    2.086824436295   -0.310335251351
 H   -0.777905883740   -1.979175563705   -0.487335251351
 H    2.452094116260    1.402824436295    0.973664748649
 H    1.132094116260   -2.663175563705    0.858664748649
 H    2.792094116260   -0.968175563705    1.571664748649
 H   -2.891586883740    0.267924436295    0.458694748649
 H   -3.600265883740    1.247314436295   -0.910525251351
