8
0 1 
 C   -0.213914659423   -0.636594587523    0.368001922432
 C    0.210085340577    0.636405412477   -0.371998077568
 H   -0.573914659423   -1.378594587523   -0.345998077568
 H    0.647085340577   -1.040594587523    0.901001922432
 H   -0.987914659423   -0.418594587523    1.104001922432
 H    0.504085340577    1.379405412477    0.371001922432
 H   -0.624780659423    1.029577412477   -0.970678077568
 H    1.081034340577    0.431053412477   -1.011748077568
