8
0 1 
 C   -0.502512148768   -0.146828339922    0.544027855893
 C    0.495487851232    0.143171660078   -0.546972144107
 H   -1.111512148768   -1.019828339922    0.319027855893
 H    0.054487851232   -0.331828339922    1.460027855893
 H   -1.105512148768    0.747171660078    0.657027855893
 H    1.209487851232   -0.679828339922   -0.618972144107
 H    1.042487851232    1.038171660078   -0.266972144107
 H   -0.005802148768    0.289681160078   -1.515082144107
