8
0 1 
 C    0.698195245153    0.188677390426   -0.264527091117
 C   -0.703804754847   -0.190322609574    0.260472908883
 H    0.707195245153    0.165677390426   -1.354527091117
 H    0.960195245153    1.191677390426    0.067472908883
 H    1.439195245153   -0.516322609574    0.115472908883
 H   -0.641804754847   -0.278322609574    1.347472908883
 H   -0.993774754847   -1.167667609574   -0.152701091117
 H   -1.404214754847    0.624547390426    0.025081908883
