9
0 1 
 C    0.756015908831    0.862214061878    0.881415217140
 C   -0.038984091169    0.006214061878   -0.063584782860
 O   -0.648984091169    0.521214061878   -0.975584782860
 N   -0.065984091169   -1.309785938122    0.138415217140
 H    1.714015908831    1.088214061878    0.414415217140
 H    0.964015908831    0.298214061878    1.791415217140
 H   -0.654984091169   -1.866785938122   -0.460584782860
 H    0.421015908831   -1.723785938122    0.918415217140
 H    0.235015908831    1.790498061878    1.158621217140
