16
0 1 
 C    1.575701745635    2.134339006819    1.255306834013
 C    0.432701745635   -0.541660993181   -1.208693165987
 C   -0.729298254365   -1.001660993181   -0.592693165987
 C    1.186701745635    0.467339006819   -0.604693165987
 C    0.774701745635    1.033339006819    0.601306834013
 C   -1.152298254365   -0.439660993181    0.608306834013
 C   -0.403298254365    0.576339006819    1.193306834013
 O   -1.460298254365   -1.995660993181   -1.165693165987
 H    0.745701745635   -0.964660993181   -2.150693165987
 H    2.091701745635    0.817339006819   -1.082693165987
 H   -2.059298254365   -0.786660993181    1.085306834013
 H   -2.210298254365   -2.235660993181   -0.602693165987
 H    0.883701745635    2.923339006819    1.551306834013
 H    2.261701745635    2.559339006819    0.522306834013
 H   -0.738298254365    1.015339006819    2.125306834013
 H    2.139119645635    1.811359006819    2.143138834013
