12
0 1 
 C    1.427843588266   -0.198833775051    1.670717679857
 C   -0.314156411734    0.085166224949   -1.493282320143
 C    0.416843588266   -0.089833775051    0.570717679857
 C   -0.927156411734    0.073166224949    0.619717679857
 N    0.784843588266   -0.035833775051   -0.757282320143
 N   -1.362156411734    0.165166224949   -0.685282320143
 H   -0.341156411734    0.155166224949   -2.572282320143
 H   -2.323156411734    0.218166224949   -0.997282320143
 H   -1.535156411734    0.105166224949    1.514717679857
 H    2.078843588266   -1.045833775051    1.452717679857
 H    0.921843588266   -0.392833775051    2.616717679857
 H    2.035893588266    0.715056224949    1.741907679857
