22
0 1 
 C    0.380797827491    2.578838537555   -0.405265942990
 C    1.092797827491    2.889838537555   -1.725265942990
 C    0.605797827491    1.171838537555    0.084734057010
 C    1.736797827491    0.671838537555    0.663734057010
 C   -0.322202172509    0.062838537555    0.012734057010
 C    0.321797827491   -1.073161462445    0.579734057010
 C   -1.630202172509   -0.088161462445   -0.479265942990
 C   -0.295202172509   -2.316161462445    0.670734057010
 C   -2.252202172509   -1.334161462445   -0.374265942990
 C   -1.590202172509   -2.433161462445    0.193734057010
 N    1.567797827491   -0.659161462445    0.978734057010
 H    0.713797827491    3.270838537555    0.356734057010
 H   -0.692202172509    2.725838537555   -0.535265942990
 H    2.170797827491    2.832838537555   -1.567265942990
 H    2.641797827491    1.234838537555    0.843734057010
 H    2.283797827491   -1.240161462445    1.412734057010
 H   -2.147202172509    0.754838537555   -0.911265942990
 H    0.212797827491   -3.156161462445    1.118734057010
 H   -3.265202172509   -1.457161462445   -0.734265942990
 H   -2.098202172509   -3.383161462445    0.272734057010
 H    0.821947827491    3.885968537555   -2.105210942990
 H    0.816727827491    2.137628537555   -2.478904942990
