12
0 1 
 C   -0.230232732163   -0.656629247664    0.819526745867
 C   -1.136232732163    0.239370752336    1.667526745867
 C    0.270767267837   -0.001629247664   -0.459473254133
 O   -0.177232732163    1.072370752336   -0.853473254133
 N    1.214767267837   -0.653629247664   -1.120473254133
 H    0.642767267837   -0.918629247664    1.417526745867
 H   -0.743232732163   -1.584629247664    0.567526745867
 H   -0.788232732163    1.274370752336    1.646526745867
 H   -1.046232732163   -0.103629247664    2.699526745867
 H    1.551767267837   -0.254629247664   -1.980473254133
 H    1.562767267837   -1.544629247664   -0.768473254133
 H   -2.198902732163    0.181851752336    1.389276745867
