8
1 1 
 C   -0.595088072964   -0.449271432745    0.314283582868
 N    0.524911927036    0.410728567255   -0.283716417132
 H    0.857911927036    1.067728567255    0.427283582868
 H    1.306911927036   -0.163271432745   -0.576716417132
 H    0.198911927036    0.934728567255   -1.084716417132
 H   -0.143088072964   -1.057271432745    1.105283582868
 H   -0.948088072964   -1.158271432745   -0.440716417132
 H   -1.480258072964    0.018948567255    0.769516582868
