12
0 1 
 C   -0.439141986217   -2.125728409758   -0.445452141474
 C    0.832858013783    1.096271590242    0.675547858525
 C   -0.160141986217   -0.672728409758   -0.171452141474
 C   -0.826141986217    0.429271590242   -0.602452141475
 N    0.868858013783   -0.226728409758    0.630547858525
 N   -0.188141986217    1.523271590242   -0.058452141474
 H    1.480858013783    1.710271590242    1.285547858526
 H   -0.564141986217    2.461271590242    0.000547858525
 H   -1.713141986217    0.427271590242   -1.224452141474
 H   -1.386141986217   -2.177728409758   -0.978452141474
 H   -0.548141986217   -2.654728409758    0.498547858525
 H    0.328208013783   -2.624618409758   -1.055602141475
