13
1 1 
 C   -1.709350381054    0.583355967929    0.820731698560
 C    0.422649618946   -0.131644032071   -0.201268301440
 N    1.726649618946    0.009355967929   -0.316268301440
 N   -0.260350381054    0.656355967929    0.614731698560
 N   -0.195350381054   -1.064644032071   -0.900268301440
 H    2.214649618946    0.620355967929    0.341731698560
 H    2.257649618946   -0.589644032071   -0.926268301440
 H    0.264649618946    1.322355967929    1.161731698560
 H   -1.173350381054   -1.241644032071   -0.751268301440
 H    0.329649618946   -1.667644032071   -1.514268301440
 H   -1.973350381054    1.299355967929    1.599731698560
 H   -1.996350381054   -0.410644032071    1.171731698560
 H   -2.262030381054    0.831953867929   -0.097278301440
