8
0 1 
 C    0.718977829889   -0.004400930321    0.323541312787
 C   -0.713022170111   -0.003400930321   -0.319458687213
 H    1.038977829889   -1.027400930321    0.519541312787
 H    1.424977829889    0.451599069679   -0.366458687213
 H    0.713977829889    0.562599069679    1.254541312787
 H   -0.697022170111   -0.583400930321   -1.240458687213
 H   -1.542202170111   -0.344487930321    0.317815312787
 H   -1.009622170111    1.033987069679   -0.533591687213
