10
-1 1 
 C   -0.340831218473    0.694849803417    0.755690445446
 C   -1.146831218473   -0.315150196583    1.577690445446
 C    0.326168781527    0.053849803417   -0.450309554554
 O    0.344168781527   -1.192150196583   -0.535309554554
 O    0.820168781527    0.805849803417   -1.323309554554
 H   -1.016831218473    1.471849803417    0.395690445446
 H    0.414168781527    1.186849803417    1.367690445446
 H   -1.703831218473   -0.943150196583    0.880690445446
 H   -1.850641218473    0.206469803417    2.242945445446
 H   -0.492041218473   -0.953350196583    2.189209445446
