19
0 1 
 C    1.964511771645    1.065553465665    1.195454835605
 C    2.293511771645    0.162553465665    2.379454835605
 C    0.803511771645    0.523553465665    0.398454835605
 C   -0.497488228355    0.663553465665    0.871454835605
 C    1.016511771645   -0.166446534335   -0.792545164395
 C   -1.573488228355    0.150553465665    0.159454835605
 C   -0.054488228355   -0.683446534335   -1.515545164395
 C   -1.350488228355   -0.524446534335   -1.035545164395
 O   -2.407488228355   -1.022446534335   -1.726545164395
 H    1.712511771645    2.063553465665    1.554454835605
 H    2.841511771645    1.157553465665    0.553454835605
 H    1.381511771645    0.076553465665    2.972454835605
 H   -0.676488228355    1.190553465665    1.797454835605
 H    2.026511771645   -0.305446534335   -1.155545164395
 H   -2.576488228355    0.270553465665    0.543454835605
 H    0.101511771645   -1.208446534335   -2.444545164395
 H   -3.226488228355   -0.954446534335   -1.234545164395
 H    3.077959771645    0.592563465665    3.019557835605
 H    2.563841771645   -0.842148534335    2.022387835605
