8
0 1 
 C   -0.386845340273    0.305641754762    0.571254379126
 C    0.381154659727   -0.299358245238   -0.576745620874
 H   -1.246845340273   -0.318358245238    0.748254379126
 H    0.240154659727    0.266641754762    1.455254379126
 H   -0.647845340273    1.345641754762    0.389254379126
 H    0.252154659727   -1.382358245238   -0.543745620874
 H    1.445154659727   -0.093358245238   -0.448745620874
 H    0.024984659727    0.106974554762   -1.534888620874
