12
0 1 
 C   -0.400995284259   -0.393564270037   -0.921737212599
 C   -1.855995284259   -0.641564270038   -0.490737212599
 C    0.484004715741    0.144435729963    0.189262787401
 O    0.705004715741   -0.515564270038    1.200262787401
 N    1.033004715741    1.329435729962   -0.007737212599
 H    0.031004715741   -1.340564270038   -1.242737212599
 H   -0.380995284259    0.264435729962   -1.774737212599
 H   -1.873995284259   -1.401564270038    0.294262787401
 H    1.651004715741    1.706435729963    0.696262787401
 H    0.871004715741    1.814435729963   -0.885737212599
 H   -2.409885284259   -1.000764270038   -1.370617212599
 H   -2.319365284259    0.273645729962   -0.093663212599
