9
0 1 
 C    0.413152184101   -0.322258673536    0.230623104221
 C   -1.068847815899   -0.697258673536    0.222623104221
 O    0.630152184101    0.944741326464   -0.361376895779
 H    0.773152184101   -0.306258673536    1.260623104221
 H    0.971152184101   -1.081258673536   -0.318376895779
 H   -1.209847815899   -1.643258673536    0.720623104221
 H    0.373152184101    0.900741326464   -1.289376895779
 H   -1.444937815899   -0.776718673536   -0.808026895779
 H   -1.656387815899    0.052241326464    0.773123104221
