14
0 1 
 C   -0.216003720431    0.209382300310   -0.211010043310
 C    0.307996279569   -0.950617699690   -1.059010043310
 C   -1.040003720431   -0.320617699690    0.958989956690
 C    0.933996279569    1.086382300310    0.288989956690
 H   -0.877003720431    0.825382300310   -0.819010043310
 H   -0.581003720431   -1.468617699690   -1.420010043310
 H   -0.420003720431   -0.916617699690    1.628989956690
 H   -1.452003720431    0.514382300310    1.521989956690
 H   -1.866003720431   -0.917617699690    0.570989956690
 H    1.482996279569    1.503382300310   -0.550010043310
 H    0.518996279569    1.913382300310    0.865989956690
 H    1.610996279569    0.519382300310    0.928989956690
 H    0.934636279569   -1.654371699690   -0.491514043310
 H    0.815266279569   -0.610751699690   -1.973977043310
