7
-1 1 
 C   -0.692480557572   -0.857464764959   -0.939039638226
 C    0.047519442428    0.044535235041    0.053960361774
 O    1.024519442428    0.720535235041   -0.347039638226
 O   -0.368480557572    0.090535235041    1.234960361774
 H   -1.624480557572   -0.358464764959   -1.212039638226
 H   -0.975480557572   -1.801464764959   -0.472039638226
 H   -0.132410557572   -1.032934764959   -1.869379638226
