8
0 1 
 C   -0.440231347488   -0.504843237704    0.365868074847
 C    0.443768652512    0.503156762296   -0.367131925153
 H    0.009768652512   -1.494843237704    0.356868074847
 H   -0.582231347488   -0.199843237704    1.401868074847
 H   -1.416231347488   -0.554843237704   -0.118131925153
 H   -0.064231347488    1.465156762296   -0.375131925153
 H    0.606888652512    0.183716762296   -1.407011925153
 H    1.403918652512    0.620736762296    0.156588074847
