11
1 1 
 C   -0.360007696324    0.039343317318    0.477713841286
 C    1.074992303676    0.541343317318    0.547713841286
 N   -0.653007696324   -0.510656682682   -0.875286158714
 H   -0.504007696324   -0.732656682682    1.241713841286
 H   -1.039007696324    0.870343317318    0.699713841286
 H    1.229992303676    1.273343317318   -0.250286158714
 H    1.759992303676   -0.294656682682    0.388713841286
 H   -0.048007696324   -1.293656682682   -1.102286158714
 H   -1.608007696324   -0.847656682682   -0.937286158714
 H   -0.537007696324    0.188343317318   -1.600286158714
 H    1.305972303676    1.017703317318    1.511943841286
