8
0 1 
 C    0.033163683373    0.679959520945   -0.405123965220
 C   -0.032836316627   -0.679040479055    0.399876034780
 H   -0.882836316627    0.829959520945   -0.976123965220
 H    0.150163683373    1.518959520945    0.281876034780
 H    0.874163683373    0.678959520945   -1.091123965220
 H   -0.877836316627   -0.651040479055    1.088876034780
 H    0.884163683373   -0.807040479055    0.977876034780
 H   -0.151716316627   -1.580740479055   -0.218893965220
