11
0 1 
 C    0.099158732375   -0.290942072886    0.463978327190
 C   -0.658841267625    1.047057927114    0.459978327190
 C    0.565158732375   -0.769942072886   -0.898021672810
 H    0.962158732375   -0.190942072886    1.118978327190
 H   -0.546841267625   -1.068942072886    0.869978327190
 H   -1.566841267625    0.949057927114   -0.122021672810
 H    1.381158732375   -0.147942072886   -1.264021672810
 H    0.931158732375   -1.793942072886   -0.812021672810
 H   -0.258841267625   -0.751942072886   -1.609021672810
 H   -0.922951267625    1.324121527114    1.491228327190
 H   -0.044205267625    1.845157327114    0.018098327190
