12
0 1 
 C   -0.133797133805    0.707051391626   -2.066178947729
 C   -0.077797133805    0.239051391626   -0.654178947729
 C    0.741202866195   -0.693948608374    1.121821052271
 C   -1.004797133805    0.366051391626    0.332821052271
 N    1.012202866195   -0.428948608374   -0.151178947729
 N   -0.466797133805   -0.233948608374    1.439821052271
 H    1.401202866195   -1.219948608374    1.801821052271
 H    0.844202866195    1.096051391626   -2.351178947729
 H   -0.841797133805    1.530051391626   -2.103178947729
 H   -0.906797133805   -0.329948608374    2.348821052271
 H   -1.973797133805    0.841051391626    0.252821052271
 H   -0.443084133805   -0.067598608374   -2.783288947729
