8
0 1 
 C   -0.558215550295   -0.016211099809    0.527493274426
 C    0.555784449705    0.017788900191   -0.530506725574
 H   -1.523215550295    0.193788900191    0.064493274426
 H   -0.606215550295   -0.996211099809    0.997493274426
 H   -0.366215550295    0.706788900191    1.321493274426
 H    1.508784449705   -0.131211099809   -0.020506725574
 H    0.588474449705    0.987198900191   -1.049326725574
 H    0.427334449705   -0.779141099809   -1.277765725574
