11
0 1 
 C    0.090513249416    0.234543000711    0.540600691810
 C   -0.344486750584   -1.191456999289    0.273600691810
 C    0.258513249416    0.977543000711   -0.768399308190
 H   -0.644486750584    0.734543000711    1.165600691810
 H    1.043513249416    0.225543000711    1.066600691810
 H    0.419513249416   -1.658456999289   -0.352399308190
 H   -1.275486750584   -1.172456999289   -0.296399308190
 H    0.973513249416    0.430543000711   -1.390399308190
 H   -0.699486750584    1.006543000711   -1.291399308190
 H   -0.500036750584   -1.813656999289    1.167287691810
 H    0.628903249416    2.001773000711   -0.614249308190
