19
0 1 
 C    0.731276052577   -2.314204840976   -0.756481630527
 C   -0.537723947423   -3.069204840976   -1.145481630527
 C    0.431276052577   -0.912204840976   -0.275481630527
 C    0.320276052577    0.137795159024   -1.180481630527
 C    0.188276052577   -0.655204840976    1.072518369473
 C   -0.004723947423    1.422795159024   -0.750481630527
 C   -0.140723947423    0.630795159024    1.503518369473
 C   -0.235723947423    1.667795159024    0.590518369473
 O   -0.555723947423    2.929795159024    0.987518369473
 H    1.238276052577   -2.852204840976    0.038518369473
 H    1.388276052577   -2.250204840976   -1.621481630527
 H   -1.078723947423   -2.432204840976   -1.848481630527
 H    0.490276052577   -0.042204840976   -2.234481630527
 H    0.235276052577   -1.463204840976    1.789518369473
 H   -0.077723947423    2.228795159024   -1.467481630527
 H   -0.422723947423    0.847795159024    2.512518369473
 H   -0.415723947423    3.566795159024    0.278518369473
 H   -1.159318947423   -3.262556440976   -0.258782630527
 H   -0.334563947423   -4.027167420976   -1.646514630527
