19
0 1 
 C    1.798003446239   -0.159869706562   -1.758145854393
 C    2.546003446239   -1.488869706562   -1.707145854393
 C    0.700003446239    0.015130293438   -0.741145854393
 C    0.261003446239   -1.051869706562    0.052854145607
 C    0.102003446239    1.268130293438   -0.579145854393
 C   -0.753996553761   -0.867869706562    0.992854145607
 C   -0.911996553761    1.461130293438    0.356854145607
 C   -1.336996553761    0.393130293438    1.143854145607
 O   -2.319996553761    0.590130293438    2.065854145607
 H    2.514003446239    0.654130293438   -1.637145854393
 H    1.347003446239   -0.053869706562   -2.746145854393
 H    1.832003446239   -2.309869706562   -1.788145854393
 H    0.675003446239   -2.042869706562   -0.041145854393
 H    0.425003446239    2.094130293438   -1.198145854393
 H   -1.091996553761   -1.697869706562    1.596854145607
 H   -1.364996553761    2.431130293438    0.474854145607
 H   -2.499996553761   -0.200869706562    2.585854145607
 H    3.148733446239   -1.566469706562   -0.790245854393
 H    3.210923446239   -1.542029706562   -2.581815854393
