18
0 1 
 C    1.747983260547    1.009236763718   -0.260828438504
 C    1.483983260547    2.378236763718   -0.883828438504
 C    0.525983260547    0.173236763718   -0.025828438504
 C    0.235983260547   -0.897763236282   -0.868828438504
 C   -0.313016739453    0.433236763718    1.059171561496
 C   -0.878016739453   -1.707763236282   -0.634828438504
 C   -1.429016739453   -0.374763236282    1.301171561496
 C   -1.712016739453   -1.446763236282    0.453171561496
 H    2.476983260547    0.457236763718   -0.850828438504
 H    2.177983260547    1.212236763718    0.707171561496
 H    0.871983260547    2.955236763718   -0.191828438504
 H    0.897983260547   -1.124763236282   -1.685828438504
 H   -0.100016739453    1.258236763718    1.720171561496
 H   -1.087016739453   -2.543763236282   -1.288828438504
 H   -2.077016739453   -0.165763236282    2.142171561496
 H   -2.577016739453   -2.068763236282    0.637171561496
 H    0.983983260547    2.298936763718   -1.860408438504
 H    2.458253260547    2.878086763718   -0.988448438504
