11
0 1 
 C   -0.223821092012   -0.496439862358   -0.216624042155
 C    0.944178907988   -0.439439862358    0.777375957845
 C   -0.731821092012    0.899560137642   -0.582624042155
 H    0.103178907988   -1.002439862358   -1.126624042155
 H   -1.046821092012   -1.065439862358    0.218375957845
 H    0.659178907988    0.224560137642    1.599375957845
 H   -1.104821092012    1.376560137642    0.325375957845
 H    0.100178907988    1.492560137642   -0.952624042155
 H    1.840688907988   -0.041995862358    0.279065957845
 H    1.132208907988   -1.420630862358    1.237715957845
 H   -1.547301092012    0.869277137642   -1.320234042155
