8
0 1 
 C   -0.177076368647    0.731142306769   -0.034992009464
 C    0.177923631353   -0.726857693231    0.048007990536
 H   -1.257076368647    0.851142306769   -0.110992009464
 H    0.243923631353    1.244142306769    0.802007990536
 H    0.241923631353    1.120142306769   -0.960992009464
 H    0.027923631353   -1.153857693231   -0.944992009464
 H    1.234063631353   -0.856909693231    0.326690990536
 H   -0.500846368647   -1.255675693231    0.733297990536
