11
0 1 
 C   -0.239296445493    0.382687159339    0.335593415142
 C   -1.047296445493   -0.511312840661   -0.610406584858
 C    1.269703554507    0.153687159339    0.290593415142
 H   -0.373296445493    1.416687159339    0.105593415142
 H   -0.580296445493    0.211687159339    1.359593415142
 H   -0.797296445493   -1.553312840661   -0.399406584858
 H    1.480703554507   -0.891312840661    0.517593415142
 H    1.647703554507    0.378687159339   -0.707406584858
 H   -0.827966445493   -0.253272840661   -1.656976584858
 H   -2.127376445493   -0.399752840661   -0.434376584858
 H    1.778923554507    0.792187159339    1.027493415142
