8
0 1 
 C   -0.282749795409   -0.701035766918   -0.012448238514
 C    0.286250204591    0.698964233082    0.019551761486
 H   -0.854749795409   -0.902035766918    0.891551761486
 H   -0.956749795409   -0.793035766918   -0.863448238514
 H    0.521250204591   -1.431035766918   -0.112448238514
 H   -0.527749795409    1.410964233082    0.171551761486
 H    0.719250204591    0.889964233082   -0.961448238514
 H    1.057070204591    0.849844233082    0.789660761486
