22
0 1 
 C    2.467412566394   -0.265941546285    0.846671422992
 C    3.337412566394    0.798058453715    0.175671422992
 C    1.012412566394    0.076058453715    0.863671422992
 C    0.340412566394    0.771058453715    1.825671422992
 C    0.045412566394   -0.255941546285   -0.140328577008
 C   -1.202587433606    0.267058453715    0.283671422992
 C    0.108412566394   -0.947941546285   -1.355328577008
 C   -2.361587433606    0.116058453715   -0.461328577008
 C   -1.052587433606   -1.097941546285   -2.103328577008
 C   -2.271587433606   -0.569941546285   -1.658328577008
 N   -0.985587433606    0.887058453715    1.484671422992
 H    2.611412566394   -1.220941546285    0.338671422992
 H    2.788412566394   -0.384941546285    1.881671422992
 H    3.160412566394    0.753058453715   -0.900328577008
 H    0.784412566394    1.159058453715    2.737671422992
 H   -1.686587433606    1.341058453715    2.060671422992
 H    1.047412566394   -1.358941546285   -1.701328577008
 H   -3.301587433606    0.524058453715   -0.116328577008
 H   -1.016587433606   -1.630941546285   -3.045328577008
 H   -3.160587433606   -0.702941546285   -2.264328577008
 H    4.401290566394    0.609208453715    0.381826422992
 H    3.028008566394    1.796784453715    0.517454422992
