8
0 1 
 C   -0.098611538497   -0.739381609380    0.164332828319
 C    0.090388461503    0.737618390620   -0.171667171681
 H   -0.858611538497   -1.192381609380   -0.473667171681
 H    0.847388461503   -1.248381609380    0.017332828319
 H   -0.371611538497   -0.871381609380    1.211332828319
 H    0.734388461503    1.155618390620    0.605332828319
 H   -0.864441538497    1.283135390620   -0.144988071681
 H    0.610798461503    0.894385390620   -1.128014471681
