9
0 1 
 C   -1.034148179611   -1.030427045219    0.318661917845
 C   -0.006148179611    1.330572954781   -0.676338082155
 S    0.529851820389   -0.153427045219    0.185661917845
 H   -1.519148179611   -1.087427045219   -0.653338082155
 H   -0.852148179611   -2.034427045219    0.696661917845
 H   -1.692148179611   -0.484427045219    0.994661917845
 H   -0.673148179611    1.032572954781   -1.486338082155
 H    0.850851820389    1.812572954781   -1.142338082155
 H   -0.536558179611    2.054642954781   -0.040428082155
