8
0 1 
 C    0.427370758181    0.493454959277   -0.368898507703
 C   -0.428629241819   -0.492545040723    0.374101492297
 H    1.429370758181    0.087454959277   -0.514898507703
 H   -0.007629241819    0.703454959277   -1.345898507703
 H    0.493370758181    1.424454959277    0.194101492297
 H   -0.500629241819   -1.384545040723   -0.246898507703
 H    0.041760758181   -0.753873040723    1.333501492297
 H   -1.441259241819   -0.087781040723    0.518141492297
