11
0 1 
 C   -0.044159461017    0.171160582411    0.610115111008
 C    0.379840538983    1.033160582411   -0.557884888992
 C   -0.346159461017   -1.187839417589   -0.006884888992
 H   -0.909159461017    0.592160582411    1.125115111008
 H    0.783840538983    0.072160582411    1.307115111008
 H   -0.507159461017    1.477160582411   -1.012884888992
 H    1.066840538983    1.819160582411   -0.244884888992
 H    0.011840538983   -1.960839417589    0.674115111008
 H    0.850880538983    0.352040582411   -1.281894888992
 H    0.250130538983   -1.208139417589   -0.931024888992
 H   -1.422449461017   -1.339949417589   -0.175574888992
