8
0 1 
 C    0.218879127296   -0.160906811606    0.717312859504
 C   -0.217120872704    0.151093188394   -0.719687140496
 H    0.974879127296   -0.943906811606    0.720312859504
 H    0.644879127296    0.739093188394    1.161312859504
 H   -0.633120872704   -0.466906811606    1.326312859504
 H   -0.835120872704    1.047093188394   -0.679687140496
 H   -0.822110872704   -0.660036811606   -1.151019140496
 H    0.649659127296    0.401513188394   -1.348962140496
