8
0 1 
 C    0.143946685040    0.051663006793   -0.741901387476
 C   -0.147053314960   -0.052336993207    0.742098612524
 H   -0.727053314960    0.440663006793   -1.272901387476
 H    0.986946685040    0.724663006793   -0.905901387476
 H    0.382946685040   -0.932336993207   -1.147901387476
 H    0.758946685040   -0.382336993207    1.256098612524
 H   -0.948643314960   -0.781327993207    0.931908612524
 H   -0.416153314960    0.938701006793    1.136348612524
