16
0 1 
 C    2.725498693883    0.191204441173    1.115262949644
 C   -0.456501306117   -1.202795558827   -0.488737050356
 C    0.832498693883   -1.115795558827    0.044262949644
 C   -1.274501306117   -0.072795558827   -0.525737050356
 C    1.317498693883    0.087204441173    0.562262949644
 C   -0.801501306117    1.142204441173   -0.026737050356
 C    0.492498693883    1.218204441173    0.506262949644
 O   -2.536501306117   -0.164795558827   -1.045737050356
 H   -0.818501306117   -2.145795558827   -0.874737050356
 H    1.431498693883   -1.998795558827    0.088262949644
 H   -2.730501306117   -1.052795558827   -1.366737050356
 H   -1.434501306117    2.017204441173   -0.059737050356
 H    3.039498693883   -0.761795558827    1.544262949644
 H    2.719498693883    0.931204441173    1.915262949644
 H    0.855498693883    2.166204441173    0.882262949644
 H    3.431921693883    0.513874441173    0.336256949644
