19
0 1 
 C    2.633675823195    0.070116868347   -1.378313032919
 C    0.364675823195    0.256116868347   -0.092313032919
 C    1.311675823195   -0.470883131653   -0.904313032919
 C   -0.740324176805   -0.600883131653    0.159686967081
 C    0.780675823195   -1.695883131653   -1.111313032919
 C   -0.783324176805    1.967116868347    1.209686967081
 C   -1.854324176805    1.081116868347    1.437686967081
 C    0.336675823195    1.563116868347    0.440686967081
 C   -1.855324176805   -0.194883131653    0.921686967081
 N   -0.463324176805   -1.784883131653   -0.476313032919
 H   -0.805324176805    2.958116868347    1.639686967081
 H   -2.676324176805    1.415116868347    2.034686967081
 H    1.162675823195    2.238116868347    0.270686967081
 H   -2.682324176805   -0.864883131653    1.099686967081
 H    3.349675823195   -0.747883131653   -1.450313032919
 H    3.009675823195    0.755116868347   -0.616313032919
 H    1.249675823195   -2.484883131653   -1.687313032919
 H   -1.073324176805   -2.598883131653   -0.473313032919
 H    2.592275823195    0.613252868347   -2.333975032919
