6
0 1 
 C   -0.534325261181    0.474806165963    0.032763927534
 O    0.471674738819   -0.481193834037   -0.060236072466
 H    1.274674738819   -0.183193834037    0.389763927534
 H   -0.927325261181    0.683806165963   -0.961236072466
 H   -0.134325261181    1.395806165963    0.459763927534
 H   -1.336725261181    0.087041165963    0.677583927534
