15
0 1 
 C   -1.654602127813   -0.738186964988    1.654369521711
 C   -0.458602127813   -0.990186964988   -0.552630478289
 C   -0.646602127813   -0.271186964988    0.629369521711
 C    0.487397872187   -0.584186964988   -1.488630478289
 C    0.138397872187    0.856813035012    0.866369521711
 C    1.254397872187    0.553813035012   -1.251630478289
 C    1.079397872187    1.277813035012   -0.070630478289
 H   -1.053602127813   -1.868186964988   -0.742630478289
 H    0.619397872187   -1.145186964988   -2.401630478289
 H   -1.151602127813   -1.400186964988    2.351369521711
 H   -2.425602127813   -1.330186964988    1.158369521711
 H    0.069397872187    1.417813035012    1.782369521711
 H    1.992397872187    0.869813035012   -1.977630478289
 H    1.694397872187    2.140813035012    0.134369521711
 H   -2.123592127813    0.068768035012    2.236489521711
