8
0 1 
 C   -0.449020918513    0.489604879071   -0.373183243916
 C    0.450979081487   -0.490395120929    0.371816756084
 H   -0.367020918513    0.334604879071   -1.449183243916
 H   -1.482020918513    0.336604879071   -0.067183243916
 H   -0.158020918513    1.510604879071   -0.129183243916
 H    0.361979081487   -0.297395120929    1.437816756084
 H    1.490629081487   -0.349275120929    0.041346756084
 H    0.131139081487   -1.525735120929    0.182656756084
