8
0 1 
 C    0.174939579951   -0.735083641444    0.093099455876
 C   -0.177060420049    0.736916358556   -0.097900544124
 H    1.128939579951   -0.830083641444    0.610099455876
 H   -0.586060420049   -1.224083641444    0.700099455876
 H    0.253939579951   -1.237083641444   -0.866900544124
 H   -0.153060420049    1.203916358556    0.881099455876
 H    0.566808579951    1.230436358556   -0.740625544124
 H   -1.185314420049    0.835076358556   -0.526606544124
