12
0 1 
 C    1.310629682253   -0.582177100257   -1.685234074306
 C    0.441629682253   -0.135177100257   -0.545234074306
 C    0.310629682253    1.074822899743    0.062765925694
 C   -1.052370317747   -0.333177100257    1.057765925694
 N   -0.428370317747   -0.998177100257    0.088765925694
 N   -0.625370317747    0.923822899743    1.056765925694
 H    0.743629682253   -1.274177100257   -2.294234074306
 H    2.166629682253   -1.126177100257   -1.285234074306
 H    0.819629682253    1.985822899743   -0.186234074306
 H   -1.803370317747   -0.740177100257    1.726765925694
 H   -0.964370317747    1.662822899743    1.677765925694
 H    1.646819682253    0.235752899743   -2.339429074306
