11
0 1 
 C    0.503974031703   -0.086715984065    0.230318761288
 C    0.122974031703    1.265284015935   -0.439681238712
 C   -0.594025968297   -1.181715984065    0.224318761288
 H    1.393974031703   -0.489715984065   -0.253681238712
 H    0.742974031703    0.081284015935    1.276318761288
 H   -0.817025968297    1.622284015935   -0.018681238712
 H   -0.833025968297   -1.468715984065   -0.800681238712
 H   -0.227025968297   -2.057715984065    0.754318761288
 H   -1.494025968297   -0.811715984065    0.715318761288
 H    0.866714031703    2.068954015935   -0.334980238712
 H   -0.024555968297    1.092824015935   -1.516014238712
