11
0 1 
 C   -0.011416247473   -0.490583931499   -0.256549209657
 C   -1.249416247473    0.412416068501   -0.122549209657
 C    1.250583752527    0.054416068501    0.367450790343
 H   -0.203416247473   -1.441583931499    0.214450790343
 H    0.162583752527   -0.701583931499   -1.312549209657
 H   -1.043416247473    1.318416068501   -0.694549209657
 H    1.091583752527    0.157416068501    1.429450790343
 H    2.052583752527   -0.661583931499    0.237450790343
 H   -1.410936247473    0.696756068501    0.927720790343
 H   -2.100956247473   -0.097213931499   -0.597059209657
 H    1.574003752527    1.012186068501   -0.066229209657
