8
1 1 
 C   -0.464837646668   -0.418627950297    0.481164027478
 N    0.412162353332    0.370372049703   -0.424835972522
 H    0.265162353332    1.365372049703   -0.308835972522
 H    1.391162353332    0.177372049703   -0.256835972522
 H    0.217162353332    0.144372049703   -1.404835972522
 H   -1.512837646668   -0.131627950297    0.345164027478
 H   -0.194837646668   -0.223627950297    1.526164027478
 H   -0.357797646668   -1.493407950297    0.272862027478
