10
-1 1 
 C   -0.622480602185    0.839058208163   -0.279627806350
 C    0.090519397815    1.958058208163    0.468372193650
 C    0.008519397815   -0.551941791837   -0.105627806350
 O    1.079519397815   -0.718941791837    0.529372193650
 O   -0.584480602185   -1.510941791837   -0.638627806350
 H   -1.648480602185    0.797058208163    0.089372193650
 H   -0.677480602185    1.093058208163   -1.339627806350
 H    0.397519397815    1.623058208163    1.460372193650
 H   -0.638480602185    2.757058208163    0.613372193650
 H    0.942829397815    2.386728208163   -0.079177806350
