8
0 1 
 C   -0.393453801621   -0.649280866492   -0.015082725263
 C    0.395546198379    0.650719133508    0.012917274737
 H   -1.419453801621   -0.463280866492   -0.338082725263
 H    0.058546198379   -1.347280866492   -0.718082725263
 H   -0.400453801621   -1.089280866492    0.982917274737
 H    1.363546198379    0.460719133508    0.479917274737
 H   -0.183451801621    1.365639133508    0.615947274737
 H    0.556353198379    1.056359133508   -0.996832725263
