7
-1 1 
 C    0.400634626433    0.692499659950    1.205300153429
 C   -0.022365373567   -0.038500340050   -0.075699846571
 O    0.298634626433    0.444499659950   -1.189699846571
 O   -0.676365373567   -1.100500340050    0.053300153429
 H    0.707634626433   -0.034500340050    1.956300153429
 H   -0.446365373567    1.262499659950    1.590300153429
 H    1.229604626433    1.396149659950    1.038930153429
