11
0 1 
 C    0.592259414708    0.183255617951    0.115682552200
 C   -0.706740585292    0.864255617951    0.569682552200
 C    0.166259414708   -1.030744382049   -0.680317447800
 H    1.198259414708   -0.087744382049    0.982682552200
 H    1.120259414708    0.860255617951   -0.546317447800
 H   -0.577740585292    1.378255617951    1.522682552200
 H   -1.028740585292    1.572255617951   -0.191317447800
 H    0.288259414708   -0.878744382049   -1.752317447800
 H   -1.439630585292    0.047732617951    0.648180552200
 H   -0.888630585292   -1.176481382049   -0.404701447800
 H    0.711449414708   -1.915169382049   -0.318993447800
