15
0 1 
 C    1.013205170482   -0.266105830096    2.217845990221
 C    0.484205170482   -1.117105830096   -0.092154009779
 C    0.402205170482   -0.092105830096    0.851845990221
 C   -0.102794829518   -0.977105830096   -1.353154009779
 C   -0.781794829518    0.188894169904   -1.679154009779
 C   -0.277794829518    1.076894169904    0.519845990221
 C   -0.870794829518    1.218894169904   -0.743154009779
 H    1.041205170482   -2.010105830096    0.137845990221
 H   -0.019794829518   -1.773105830096   -2.081154009779
 H    1.263205170482    0.712894169904    2.615845990221
 H    1.945205170482   -0.822105830096    2.116845990221
 H   -1.237794829518    0.298894169904   -2.654154009779
 H   -0.362794829518    1.876894169904    1.240845990221
 H   -1.398794829518    2.127894169904   -0.992154009779
 H    0.359885170482   -0.795363830096    2.927105990221
