22
0 1 
 C   -0.619076747451    2.367864798435   -0.981504818468
 C   -0.757076747451    2.250864798435   -2.504504818468
 C    0.196923252549    1.294864798435   -0.307504818468
 C    1.491923252549    1.377864798435    0.111495181532
 C   -0.255076747451   -0.020135201565    0.062495181532
 C    0.825923252549   -0.681135201565    0.704495181532
 C   -1.469076747451   -0.700135201565   -0.073504818468
 C    0.724923252549   -1.976135201565    1.192495181532
 C   -1.572076747451   -2.004135201565    0.411495181532
 C   -0.485076747451   -2.632135201565    1.034495181532
 N    1.870923252549    0.203864798435    0.721495181532
 H   -0.204076747451    3.344864798435   -0.728504818468
 H   -1.617076747451    2.325864798435   -0.542504818468
 H   -0.937076747451    1.204864798435   -2.731504818468
 H    2.122923252549    2.253864798435   -0.004504818468
 H    2.779923252549    0.046864798435    1.142495181532
 H   -2.309076747451   -0.219135201565   -0.552504818468
 H    1.562923252549   -2.453135201565    1.680495181532
 H   -2.509076747451   -2.532135201565    0.308495181532
 H   -0.593076747451   -3.645135201565    1.401495181532
 H    0.165023252549    2.597694798435   -2.993834818468
 H   -1.622066747451    2.843874798435   -2.836364818468
