10
-1 1 
 C   -0.520463464271   -0.954627348681   -0.159224658050
 C   -1.850463464271   -0.579627348681    0.449775341950
 C    0.502536535729    0.202372651319   -0.116224658050
 O    0.528536535729    1.015372651319    0.816775341950
 O    1.334536535729    0.266372651319   -1.018224658050
 H   -0.125463464271   -1.753627348681    0.455775341950
 H   -0.666463464271   -1.320627348681   -1.179224658050
 H   -2.461463464271   -0.072627348681   -0.298224658050
 H   -1.692463464271    0.113372651319    1.273775341950
 H   -2.375863464271   -1.450227348681    0.869375341950
