8
0 1 
 C    0.123859844708    0.088404848015    0.729873883303
 C   -0.133140155292   -0.087595151985   -0.730126116697
 H   -0.638140155292   -0.412595151985    1.326873883303
 H    1.089859844708   -0.354595151985    0.970873883303
 H    0.154859844708    1.148404848015    0.982873883303
 H   -0.247140155292   -1.146595151985   -0.954126116697
 H    0.755859844708    0.270404848015   -1.244126116697
 H   -1.004800155292    0.485334848015   -1.079366116697
