12
0 1 
 C    0.022703170956    0.104772052888   -2.220509863068
 C   -0.019296829044    0.672772052888    1.376490136932
 C    0.000703170956   -0.019227947112   -0.716509863068
 C    0.013703170956   -1.117227947112    0.096490136932
 N   -0.031296829044    1.080772052888    0.112490136932
 N    0.004703170956   -0.655227947112    1.395490136932
 H   -0.025296829044    1.318772052888    2.247490136932
 H   -0.010296829044   -1.233227947112    2.234490136932
 H    0.032703170956   -2.150227947112   -0.213509863068
 H    0.900703170956   -0.424227947112   -2.586509863068
 H    0.129703170956    1.156772052888   -2.488509863068
 H   -0.870106829044   -0.307017947112   -2.713789863068
