8
0 1 
 C    0.616086341081    0.165744194885   -0.413995287863
 C   -0.620913658919   -0.163255805115    0.411004712137
 H    0.341086341081    0.557744194885   -1.391995287863
 H    1.250086341081    0.863744194885    0.118004712137
 H    1.230086341081   -0.724255805115   -0.524995287863
 H   -1.321913658919    0.669744194885    0.361004712137
 H   -1.091663658919   -1.072369805115    0.008634712137
 H   -0.350203658919   -0.324235805115    1.464954712137
