8
0 1 
 C    0.583819572649   -0.305069487793    0.426275557287
 C   -0.591180427351    0.300930512207   -0.417724442713
 H    0.194819572649   -0.917069487793    1.239275557287
 H    1.215819572649   -0.923069487793   -0.210724442713
 H    1.211819572649    0.484930512207    0.837275557287
 H   -0.138180427351    0.771930512207   -1.292724442713
 H   -1.118278427351    1.104701512207    0.117175557287
 H   -1.278355427351   -0.472141487793   -0.792094442713
