8
0 1 
 C    0.050024698165   -0.038526147139    0.755659798285
 C   -0.047975301835    0.029473852861   -0.754340201715
 H    1.071024698165   -0.242526147139    1.075659798285
 H   -0.252975301835    0.924473852861    1.170659798285
 H   -0.625975301835   -0.809526147139    1.119659798285
 H    0.682024698165    0.758473852861   -1.106340201715
 H   -1.035975301835    0.405473852861   -1.013340201715
 H    0.137474698165   -0.928585147139   -1.262011201715
