15
0 1 
 C    1.383976334307   -0.560438692962   -1.933069720958
 C    0.317976334307    0.520561307038    1.557930279042
 C    1.108976334307    0.238561307038    0.443930279042
 C   -1.050023665693    0.399561307038    1.474930279042
 C    0.533976334307   -0.198438692962   -0.745069720958
 C   -1.631023665693   -0.001438692962    0.264930279042
 C   -0.838023665693   -0.323438692962   -0.818069720958
 H    0.780976334307    0.829561307038    2.484930279042
 H    2.178976334307    0.337561307038    0.525930279042
 H   -1.672023665693    0.606561307038    2.333930279042
 H   -2.702023665693   -0.107438692962    0.192930279042
 H    2.172976334307    0.185561307038   -2.033069720958
 H    0.779976334307   -0.514438692962   -2.838069720958
 H   -1.302023665693   -0.669438692962   -1.731069720958
 H    1.836926334307   -1.560097692962   -1.858780720958
