7
-1 1 
 C    0.533230834622   -1.306449164938   -0.304325602400
 C   -0.045769165378    0.072550835062    0.014674397600
 O   -1.050769165378    0.174550835062    0.756674397600
 O    0.552230834622    1.061550835062   -0.466325602400
 H    1.389230834622   -1.483449164938    0.347674397600
 H    0.905230834622   -1.313449164938   -1.326325602400
 H   -0.186419165378   -2.129116164938   -0.180567602400
