12
0 1 
 C    0.129919173673    0.289614645413   -0.190864569285
 C    0.279919173673    0.679614645413    1.269135430715
 C    0.973919173673   -0.932385354587   -0.588864569285
 O   -1.260080826327    0.009614645413   -0.412864569285
 H    0.421919173673    1.128614645413   -0.821864569285
 H    1.299919173673    1.016614645413    1.448135430715
 H    0.637919173673   -1.819385354587   -0.050864569285
 H    0.880919173673   -1.106385354587   -1.660864569285
 H    2.019919173673   -0.741385354587   -0.356864569285
 H   -1.324080826327   -0.459385354587   -1.257864569285
 H   -0.007410826327   -0.126255354587    1.960525430715
 H   -0.406870826327    1.516281645413    1.464845430715
