8
0 1 
 C    0.546186944057    0.393283959008    0.353890536276
 C   -0.548813055943   -0.387716040992   -0.357109463724
 H    0.132186944057    1.125283959008    1.045890536276
 H    1.158186944057   -0.305716040992    0.923890536276
 H    1.177186944057    0.877283959008   -0.385109463724
 H   -1.145813055943   -0.882716040992    0.401890536276
 H   -1.187186055943    0.282973959008   -0.950961463724
 H   -0.103293055943   -1.163406040992   -0.997273463724
