8
0 1 
 C   -0.293944627505    0.673789235608    0.181236468807
 C    0.299055372495   -0.672210764392   -0.180763531193
 H    0.491055372495    1.351789235608    0.512236468807
 H   -0.795944627505    1.102789235608   -0.687763531193
 H   -1.021944627505    0.552789235608    0.985236468807
 H   -0.519944627505   -1.336210764392   -0.466763531193
 H    0.809519372495   -1.099226764392    0.695066468807
 H    0.976406372495   -0.590724764392   -1.043643531193
