15
0 1 
 C    0.948021220762    1.387588513893   -1.791717263615
 C    0.854021220762    0.634588513893    0.595282736385
 C    0.356021220762    0.530588513893   -0.703717263615
 C    0.322021220762   -0.146411486107    1.647282736385
 C   -0.707978779238   -1.048411486107    1.379282736385
 C   -0.677978779238   -0.375411486107   -0.969717263615
 C   -1.207978779238   -1.168411486107    0.063282736385
 H    1.648021220762    1.335588513893    0.811282736385
 H    0.718021220762   -0.058411486107    2.649282736385
 H    1.381021220762    2.281588513893   -1.339717263615
 H    0.150021220762    1.714588513893   -2.459717263615
 H   -1.130978779238   -1.643411486107    2.178282736385
 H   -1.092978779238   -0.452411486107   -1.964717263615
 H   -2.041978779238   -1.824411486107   -0.128717263615
 H    1.724461220762    0.860126513893   -2.365233263615
