8
0 1 
 C    0.213256135721   -0.462792851427   -0.553518761289
 C   -0.210743864279    0.468207148573    0.551481238711
 H    0.967256135721    0.019207148573   -1.174518761289
 H    0.603256135721   -1.376792851427   -0.113518761289
 H   -0.641743864279   -0.731792851427   -1.172518761289
 H    0.658256135721    0.799207148573    1.113481238711
 H   -0.854743864279   -0.106792851427    1.218481238711
 H   -0.762193864279    1.332497148573    0.152854238711
