8
0 1 
 C    0.674201495397   -0.335629119145    0.097589913738
 C   -0.677798504603    0.332370880855   -0.099410086262
 H    1.063201495397   -0.718629119145   -0.844410086262
 H    1.387201495397    0.392370880855    0.469589913738
 H    0.584201495397   -1.149629119145    0.817589913738
 H   -1.016798504603    0.704370880855    0.867589913738
 H   -1.420188504603   -0.372299119145   -0.502279086262
 H   -0.554788504603    1.182610880855   -0.786408086262
