8
0 1 
 C   -0.690689845879    0.344847401683   -0.036384940563
 C    0.690310154121   -0.348152598317    0.038615059437
 H   -0.718689845879    1.207847401683    0.629615059437
 H   -0.874689845879    0.694847401683   -1.054384940563
 H   -1.477689845879   -0.351152598317    0.250615059437
 H    1.459310154121    0.393847401683   -0.171384940563
 H    0.852270154121   -0.767982598317    1.042364059437
 H    0.764010154121   -1.138052598317   -0.723377940563
