11
0 1 
 C    0.233004809073   -0.259800763489    0.472410908961
 C   -1.196995190927   -0.439800763489    0.014410908961
 C    0.983004809073    0.675199236511   -0.455589091039
 H    0.211004809073    0.181199236511    1.470410908961
 H    0.735004809073   -1.226800763489    0.508410908961
 H   -1.216995190927   -0.927800763489   -0.963589091039
 H   -1.635995190927    0.554199236511   -0.101589091039
 H    1.230004809073    0.143199236511   -1.376589091039
 H    0.361004809073    1.543199236511   -0.685589091039
 H   -1.806835190927   -1.007210763489    0.732840908961
 H    1.896404809073    1.030569236511    0.043810908961
