10
-1 1 
 C    1.013537419781   -0.199691175680   -0.354351558567
 C    0.700537419781   -1.540691175680   -1.012351558567
 C   -0.226462580219    0.419308824320    0.280648441433
 O   -1.349462580219   -0.056691175680    0.028648441433
 O   -0.082462580219    1.393308824320    1.050648441433
 H    1.759537419781   -0.337691175680    0.429648441433
 H    1.421537419781    0.480308824320   -1.105351558567
 H   -0.023462580219   -1.391691175680   -1.815351558567
 H    0.265537419781   -2.207691175680   -0.266351558567
 H    1.589797419781   -2.026531175680   -1.440351558567
