8
0 1 
 C    0.432577023178    0.611811618462   -0.122545052215
 C   -0.430422976822   -0.614188381538    0.121454947784
 H    0.463577023178    0.837811618462   -1.190545052216
 H    0.014577023178    1.467811618462    0.409454947784
 H    1.445577023178    0.444811618462    0.234454947784
 H   -0.429422976822   -0.840188381538    1.185454947784
 H   -0.048382976822   -1.469478381538   -0.455195052216
 H   -1.471572976822   -0.412468381538   -0.170645052216
