9
0 1 
 C    1.303731058992   -0.605776190689   -0.426629922436
 C   -0.425268941008    1.039223809311    0.998370077564
 S   -0.447268941008   -0.221776190689   -0.290629922436
 H    1.659731058992   -1.070776190689    0.491370077564
 H    1.464731058992   -1.301776190689   -1.245629922436
 H    1.870731058992    0.304223809311   -0.621629922436
 H   -1.415268941008    1.494223809311    1.060370077564
 H    0.297731058992    1.803223809311    0.740370077564
 H   -0.148268941008    0.645484809311    1.987432077564
