8
0 1 
 C    0.680263927947    0.094498105363    0.328022333009
 C   -0.681736072053   -0.091501894637   -0.328977666991
 H    0.636263927947    0.813498105363    1.129022333009
 H    1.002263927947   -0.852501894637    0.757022333009
 H    1.412263927947    0.421498105363   -0.410977666991
 H   -1.418736072053   -0.323501894637    0.437022333009
 H   -0.973929072053    0.829697105363   -0.854348666991
 H   -0.640598072053   -0.924364894637   -1.046365666991
