8
0 1 
 C    0.076201267288   -0.329557411855    0.681445449744
 C   -0.072798732712    0.331442588145   -0.683554550256
 H    1.031201267288   -0.063557411855    1.133445449744
 H   -0.726798732712    0.001442588145    1.341445449744
 H    0.007201267288   -1.414557411855    0.601445449744
 H   -0.932798732712   -0.095557411855   -1.195554550256
 H    0.830978267288    0.138136588145   -1.280064550256
 H   -0.250296732712    1.411646588145   -0.575604550256
