8
0 1 
 C    0.562162984744    0.469144027016    0.207796066617
 C   -0.560837015256   -0.474855972984   -0.208203933383
 H    1.401162984744    0.432144027016   -0.490203933383
 H    0.190162984744    1.496144027016    0.215796066617
 H    0.906162984744    0.239144027016    1.218796066617
 H   -0.766837015256   -0.328855972984   -1.265203933383
 H   -0.271558015256   -1.521871972984   -0.034783933383
 H   -1.474882015256   -0.248692972984    0.360456066617
