8
0 1 
 C   -0.603939624985    0.401275728870    0.230749230947
 C    0.604060375015   -0.403724271130   -0.233250769053
 H   -0.712939624985    0.315275728870    1.312749230947
 H   -0.466939624985    1.452275728870   -0.024250769053
 H   -1.508939624985    0.027275728870   -0.250250769053
 H    1.479060375015   -0.007724271130    0.279749230947
 H    0.458442375015   -1.461784271130    0.030009230947
 H    0.749878375015   -0.296164271130   -1.318220769053
