11
0 1 
 C   -0.318794453939    0.454961361610    0.138932793820
 C   -0.041794453939    0.022961361610   -1.300067206180
 C    0.341205546061   -0.447038638390    1.170932793820
 H   -0.013794453939    1.489961361610    0.295932793820
 H   -1.379794453939    0.383961361610    0.264932793820
 H   -0.466794453939    0.765961361610   -1.977067206180
 H    0.398205546061   -1.468038638390    0.789932793820
 H    1.365205546061   -0.108038638390    1.342932793820
 H   -0.504184453939   -0.955953738390   -1.494797206180
 H    1.045955546061   -0.016223938390   -1.458987206180
 H   -0.214004453939   -0.459360638390    2.120452793820
