11
0 1 
 C    0.509538537917    0.109892629583    0.263624201625
 C   -0.584461462083    1.161892629583    0.001624201625
 C    0.106538537917   -1.262107370417   -0.249375798375
 H    1.398538537917    0.385892629583   -0.217375798375
 H    0.714538537917    0.062892629583    1.334624201625
 H   -1.371461462083    1.058892629583    0.749624201625
 H   -1.022461462083    1.004892629583   -0.983375798375
 H    0.065538537917   -1.272107370417   -1.338375798375
 H    0.888538537917   -1.972107370417    0.041624201625
 H   -0.194421462083    2.189708629583    0.039905201625
 H   -0.855251462083   -1.573297370417    0.184357201625
