8
0 1 
 C    0.410772055589    0.594167585700   -0.257457156725
 C   -0.416227944411   -0.591832414300    0.253542843275
 H    0.298772055589    1.462167585700    0.389542843275
 H    1.459772055589    0.328167585700   -0.243457156725
 H    0.115772055589    0.844167585700   -1.277457156725
 H   -0.123227944411   -0.766832414300    1.285542843275
 H   -1.496547944411   -0.389812414300    0.207693843275
 H   -0.189577944411   -1.505662414300   -0.315258156725
