9
0 1 
 C   -0.046644391221   -0.560533780775    0.046375433003
 C   -1.062644391221    0.403466219225    0.628375433003
 O    0.984355608779    0.175466219225   -0.597624566997
 H    0.363355608779   -1.188533780775    0.836375433003
 H   -0.535644391221   -1.207533780775   -0.679624566997
 H   -0.528644391221    1.089466219225    1.284375433003
 H    1.600355608779   -0.463533780775   -0.982624566997
 H   -1.834731391221   -0.142956780775    1.189895433003
 H   -1.479017391221    0.998492219225   -0.197804566997
