7
-1 1 
 C    1.033002716389   -0.962795962351   -0.077251829376
 C   -0.052997283611    0.047204037649   -0.007251829376
 O   -1.240997283611   -0.315795962351   -0.002251829376
 O    0.261002716389    1.236204037649    0.083748170624
 H    0.969002716389   -1.504795962351   -1.024251829376
 H    0.879002716389   -1.680795962351    0.729748170624
 H    2.036462716389   -0.520155962351    0.007268170624
