10
-1 1 
 C    0.453185708479   -0.969716916422    0.173511270424
 C   -0.704814291521   -1.564716916422    0.960511270424
 C    0.169185708479    0.458283083578   -0.262488729576
 O   -0.888814291521    0.696283083578   -0.884488729576
 O    1.013185708479    1.344283083578    0.005511270424
 H    1.349185708479   -0.993716916422    0.799511270424
 H    0.648185708479   -1.581716916422   -0.709488729576
 H   -1.576814291521   -1.668716916422    0.312511270424
 H   -0.956814291521   -0.878716916422    1.770511270424
 H   -0.455974291521   -2.542026916422    1.399761270424
