8
0 1 
 C    0.687112683724    0.167348498001    0.276159797349
 C   -0.683887316276   -0.166651501999   -0.280840202651
 H    1.141112683724    0.972348498001   -0.302840202651
 H    0.584112683724    0.484348498001    1.314159797349
 H    1.331112683724   -0.710651501999    0.255159797349
 H   -1.084887316276   -1.013651501999    0.276159797349
 H   -0.644987316276   -0.425981501999   -1.349130202651
 H   -1.364867316276    0.685288498001   -0.137780202651
