8
0 1 
 C    0.074434348386   -0.313740544589   -0.709737139641
 C   -0.070565651614    0.310259455411    0.709262860359
 H    1.058434348386   -0.771740544589   -0.816737139641
 H   -0.698565651614   -1.066740544589   -0.864737139641
 H   -0.042565651614    0.469259455411   -1.458737139641
 H   -1.057565651614    0.755259455411    0.774262860359
 H    0.679864348386    1.099134455411    0.865902860359
 H    0.014334348386   -0.443723544589    1.505692860359
