18
0 1 
 C    0.820567194816    1.205160021614    1.440945699043
 C    0.996567194816    0.392160021614    2.744945699043
 C    0.223567194816    0.430160021614    0.285945699043
 C   -1.154432805184    0.224160021614    0.203945699043
 C    1.036567194816   -0.082839978386   -0.719054300957
 C   -1.709432805184   -0.500839978386   -0.851054300957
 C    0.478567194816   -0.800839978386   -1.782054300957
 C   -0.892432805184   -1.005839978386   -1.846054300957
 H    0.169567194816    2.056160021614    1.646945699043
 H    1.774567194816    1.616160021614    1.148945699043
 H    1.226567194816    1.111160021614    3.533945699043
 H   -1.806432805184    0.629160021614    0.958945699043
 H    2.106567194816    0.063160021614   -0.680054300957
 H   -2.772432805184   -0.675839978386   -0.894054300957
 H    1.117567194816   -1.197839978386   -2.559054300957
 H   -1.320432805184   -1.564839978386   -2.668054300957
 H    1.843207194816   -0.307856978386    2.688555699043
 H    0.048127194816   -0.077709978386    3.044415699043
