11
0 1 
 C   -0.135269271601    0.195279424381    0.534015805496
 C    0.305730728399    1.103279424381   -0.619984194504
 C   -0.175269271601   -1.282720575619    0.127015805496
 H    0.567730728399    0.304279424381    1.355015805496
 H   -1.124269271601    0.487279424381    0.880015805496
 H   -0.328269271601    0.888279424381   -1.482984194504
 H   -0.881269271601   -1.384720575619   -0.689984194504
 H    0.795730728399   -1.604720575619   -0.237984194504
 H    1.353160728399    0.910149424381   -0.894907194504
 H    0.147760728399    2.161889424381   -0.366232194504
 H   -0.473329271601   -1.951019575619    0.948315805496
