7
-1 1 
 C   -0.320714082613    1.141549176216   -0.806911565186
 C    0.020285917387   -0.064450823784    0.045088434814
 O    0.708285917387    0.117549176216    1.072088434814
 O   -0.399714082613   -1.196450823784   -0.306911565186
 H   -1.295714082613    1.526549176216   -0.497911565186
 H   -0.431714082613    0.808549176216   -1.839911565186
 H    0.407315917387    1.963028176216   -0.735191565186
