16
0 1 
 C   -0.542046044822   -2.294810695220   -1.826015927112
 C   -0.706046044822    0.101189304780    1.185984072888
 C    0.264953955178    1.061189304780    0.875984072888
 C   -0.982046044822   -0.957810695220    0.307984072888
 C   -0.308046044822   -1.081810695220   -0.915015927112
 C    0.973953955178    0.944189304780   -0.339015927112
 C    0.685953955178   -0.142810695220   -1.220015927112
 O    0.499953955178    2.101189304780    1.745984072888
 H   -1.236046044822    0.181189304780    2.120984072888
 H   -1.725046044822   -1.693810695220    0.581984072888
 H    1.733953955178    1.669189304780   -0.597015927112
 H    1.173953955178    2.702189304780    1.405984072888
 H   -0.525046044822   -1.998810695220   -2.876015927112
 H   -1.527046044822   -2.704810695220   -1.600015927112
 H    1.237953955178   -0.230810695220   -2.147015927112
 H    0.235413955178   -3.044504695220   -1.617415927112
