15
0 1 
 C   -1.493983044006   -0.870380110637    1.798839660184
 C   -1.074983044006    0.450619889363   -0.343160339816
 C   -0.557983044006   -0.323380110637    0.708839660184
 C   -0.243983044006    0.943619889363   -1.393160339816
 C    0.823016955994   -0.616380110637    0.703839660184
 C    1.097016955994    0.647619889363   -1.380160339816
 C    1.643016955994   -0.113380110637   -0.316160339816
 H   -2.123983044006    0.689619889363   -0.353160339816
 H   -0.666983044006    1.542619889363   -2.187160339816
 H   -1.122983044006   -1.855380110637    2.073839660184
 H   -2.483983044006   -1.013380110637    1.364839660184
 H    1.260016955994   -1.203380110637    1.498839660184
 H    1.746016955994    1.004619889363   -2.165160339816
 H    2.704016955994   -0.322380110637   -0.301160339816
 H   -1.599643044006   -0.251384110637    2.701988660184
