8
0 1 
 C    0.637131681755   -0.096200204511    0.406759747665
 C   -0.640868318245    0.096799795489   -0.400240252335
 H    0.401131681755   -0.417200204511    1.421759747665
 H    1.257131681755   -0.858200204511   -0.069240252335
 H    1.211131681755    0.827799795489    0.431759747665
 H   -0.352868318245    0.522799795489   -1.361240252335
 H   -1.341440918245    0.786649795489    0.093019747665
 H   -1.130594318245   -0.868988204511   -0.593685252335
