18
0 1 
 C    0.511841891370    0.455767518132   -1.953856651091
 C   -0.675158108630    0.215767518132   -2.932856651091
 C    0.228841891370    0.134767518132   -0.478856651091
 C   -0.933158108630    0.567767518132    0.178143348909
 C    1.190841891370   -0.560232481868    0.265143348909
 C   -1.129158108630    0.314767518132    1.562143348909
 C    1.017841891370   -0.814232481868    1.639143348909
 C   -0.141158108630   -0.379232481868    2.289143348909
 H    1.328841891370   -0.193232481868   -2.275856651091
 H    0.858841891370    1.490767518132   -1.993856651091
 H   -1.578158108630    0.654767518132   -2.509856651091
 H   -1.681158108630    1.104767518132   -0.389856651091
 H    2.084841891370   -0.904232481868   -0.238856651091
 H   -2.028158108630    0.652767518132    2.067143348909
 H    1.779841891370   -1.340232481868    2.194143348909
 H   -0.271158108630   -0.577232481868    3.345143348909
 H   -0.835268108630   -0.862232481868   -3.082446651091
 H   -0.500698108630    0.746367518132   -3.880526651091
