8
0 1 
 C    0.290743389885    0.700177072248    0.094739845024
 C   -0.288256610115   -0.698822927752   -0.096260154976
 H    0.154743389885    1.267177072248   -0.824260154976
 H   -0.238256610115    1.212177072248    0.899739845024
 H    1.352743389885    0.644177072248    0.340739845024
 H   -1.323256610115   -0.616822927752   -0.416260154976
 H    0.283233389885   -1.275360927752   -0.838550154976
 H   -0.258816610115   -1.247470927752    0.856692845024
