8
0 1 
 C    0.024745312317   -0.681254072440    0.362517180019
 C   -0.026254687683    0.681745927560   -0.355482819981
 H   -0.156254687683   -0.576254072440    1.421517180019
 H   -0.718254687683   -1.358254072440   -0.061482819981
 H    1.011745312317   -1.118254072440    0.218517180019
 H    0.231745312317    0.530745927560   -1.400482819981
 H    0.686015312317    1.400808927560    0.075347180019
 H   -1.037024687683    1.115350927560   -0.337172819981
