18
0 1 
 C    0.383432063820    1.475310703707    0.221643517182
 C    1.830432063820    1.596310703707    0.688643517182
 C    1.491432063820   -0.657689296293    0.057643517182
 C   -2.235567936180    0.077310703707   -0.178356482818
 C   -0.902567936180   -0.652689296293   -0.273356482818
 O   -0.884567936180   -1.858689296293   -0.518356482818
 N    0.218432063820    0.044310703707   -0.024356482818
 H   -0.303567936180    1.845310703707    0.984643517182
 H    0.257432063820    2.011310703707   -0.708356482818
 H    1.865432063820    1.516310703707    1.771643517182
 H    2.269432063820    2.545310703707    0.377643517182
 H    1.649432063820   -1.275689296293   -0.828356482818
 H   -2.078567936180    1.127310703707   -0.420356482818
 H    2.360702063820    0.741450703707    0.243637517182
 H    2.246022063820    0.142260703707    0.083564517182
 H    1.564362063820   -1.285219296293    0.958136517182
 H   -2.951867936180   -0.361349296293   -0.888635482818
 H   -2.628127936180   -0.015269296293    0.845032517182
