11
0 1 
 C   -0.104307636104    0.422695839799   -0.388551598794
 C   -0.689307636104   -0.986304160201   -0.478551598794
 C    0.792692363896    0.591695839799    0.829448401206
 H    0.473692363896    0.632695839799   -1.287551598794
 H   -0.922307636104    1.140695839799   -0.319551598794
 H   -1.168307636104   -1.222304160201    0.464448401206
 H    0.157692363896    0.442695839799    1.707448401206
 H    1.555692363896   -0.178304160201    0.892448401206
 H    0.121512363896   -1.707954160201   -0.656885598794
 H   -1.450447636104   -1.033024160201   -1.271318598794
 H    1.243462363896    1.591065839799    0.919311401206
