8
0 1 
 C   -0.037887177298    0.445358331458    0.611718037189
 C    0.036112822702   -0.443641668542   -0.614281962811
 H   -0.851887177298    0.134358331458    1.264718037189
 H    0.893112822702    0.372358331458    1.174718037189
 H   -0.198887177298    1.476358331458    0.296718037189
 H    0.115112822702   -1.477641668542   -0.279281962811
 H   -0.870827177298   -0.323911668542   -1.225121962811
 H    0.934502822702   -0.201961668542   -1.201221962811
