8
0 1 
 C   -0.133874128651    0.741047522807   -0.117669205321
 C    0.138125871349   -0.741952477193    0.125330794679
 H    0.784125871349    1.321047522807   -0.044669205321
 H   -0.521874128651    0.864047522807   -1.128669205321
 H   -0.872874128651    1.119047522807    0.589330794679
 H    0.990125871349   -1.064952477193   -0.475669205321
 H   -0.746874128651   -1.270952477193   -0.220669205321
 H    0.316745871349   -0.957462477193    1.189120794679
