13
1 1 
 C   -1.417857545483   -0.748603589158   -1.178039618050
 C    0.342142454517    0.193396410842    0.285960381950
 N   -0.848857545483    0.274396410842   -0.290039618050
 N    1.110142454517   -0.857603589158    0.087960381950
 N    0.766142454517    1.166396410842    1.066960381950
 H   -1.410857545483    1.093396410842   -0.090039618050
 H    0.763142454517   -1.674603589158   -0.407039618050
 H    2.017142454517   -0.905603589158    0.525960381950
 H    0.157142454517    1.937396410842    1.300960381950
 H    1.651142454517    1.088396410842    1.544960381950
 H   -1.483857545483   -1.714603589158   -0.675039618050
 H   -0.753857545483   -0.864603589158   -2.038039618050
 H   -2.407077545483   -0.452053589158   -1.556849618050
