8
0 1 
 C    0.690997495867    0.176785455956   -0.278023691915
 C   -0.689002504133   -0.179214544044    0.275976308085
 H    1.338997495867   -0.700214544044   -0.289023691915
 H    0.589997495867    0.558785455956   -1.292023691915
 H    1.144997495867    0.938785455956    0.353976308085
 H   -1.311002504133    0.718785455956    0.258976308085
 H   -0.592234504133   -0.534034544044    1.312676308085
 H   -1.194509504133   -0.953184544044   -0.320203691915
