8
0 1 
 C   -0.547243283514   -0.197401935635    0.492330899179
 C    0.545756716486    0.195598064365   -0.495669100821
 H   -1.084243283514   -1.068401935635    0.124330899179
 H   -0.101243283514   -0.439401935635    1.457330899179
 H   -1.242243283514    0.631598064365    0.623330899179
 H    1.126756716486    0.996598064365   -0.047669100821
 H    0.102256716486    0.557148064365   -1.435132100821
 H    1.216416716486   -0.656061935635   -0.682444100821
