8
0 1 
 C    0.088605582510   -0.717442611130   -0.235888232458
 C   -0.095394417490    0.711557388870    0.243111767542
 H   -0.724394417490   -1.348442611130    0.123111767542
 H    0.087605582510   -0.728442611130   -1.324888232458
 H    1.040605582510   -1.116442611130    0.110111767542
 H    0.732605582510    1.287557388870   -0.167888232458
 H   -0.043804417490    0.811877388870    1.337311767542
 H   -1.011784417490    1.163967388870   -0.163768232458
