15
0 1 
 C   -2.284187866316   -0.366189383005    0.835313077663
 C    0.994812133684   -0.833189383005   -1.022686922337
 C    1.721812133684    0.263810616995   -0.639686922337
 C   -0.297187866316   -1.033189383005   -0.557686922337
 C   -0.881187866316   -0.129189383005    0.318313077663
 C    1.168812133684    1.172810616995    0.237313077663
 C   -0.139187866316    0.983810616995    0.714313077663
 H    1.452812133684   -1.562189383005   -1.669686922337
 H    2.727812133684    0.403810616995   -1.011686922337
 H   -0.840187866316   -1.915189383005   -0.867686922337
 H    1.738812133684    2.036810616995    0.553313077663
 H   -2.333187866316   -0.064189383005    1.882313077663
 H   -2.482187866316   -1.439189383005    0.811313077663
 H   -0.565187866316    1.699810616995    1.403313077663
 H   -3.076472866316    0.141700616995    0.265813077663
