19
0 1 
 C    0.856822643050   -2.587474000692   -1.181929761300
 C   -0.784177356950    0.546525999308    0.083070238700
 C    0.365822643050   -0.272474000692   -0.050929761300
 C   -0.023177356950   -1.438474000692   -0.797929761300
 C   -1.345177356950   -1.289474000692   -1.073929761300
 C   -0.760177356950    1.761525999308    0.753070238700
 C    0.440822643050    2.169525999308    1.303070238700
 C    1.569822643050    0.163525999308    0.516070238700
 C    1.594822643050    1.382525999308    1.189070238700
 N   -1.808177356950   -0.103474000692   -0.551929761300
 H   -2.783177356950    0.172525999308   -0.542929761300
 H   -1.651177356950    2.366525999308    0.844070238700
 H   -1.952177356950   -2.024474000692   -1.591929761300
 H    0.491822643050    3.112525999308    1.833070238700
 H    2.463822643050   -0.439474000692    0.431070238700
 H    0.244822643050   -3.423474000692   -1.517929761300
 H    1.373822643050   -2.904474000692   -0.274929761300
 H    2.520822643050    1.731525999308    1.628070238700
 H    1.608483643050   -2.341714000692   -1.946529761300
