9
0 1 
 C   -1.301658148522   -0.508905647301   -0.526603328673
 C    0.634341851478    1.345094352699    0.138396671327
 S    0.338341851478   -0.425905647301    0.200396671327
 H   -1.262658148522   -0.149905647301   -1.555603328673
 H   -1.648658148522   -1.542905647301   -0.516603328673
 H   -1.996658148522    0.108094352699    0.040396671327
 H    0.392341851478    1.709094352699   -0.861603328673
 H    1.694341851478    1.528094352699    0.286396671327
 H    0.033411851478    1.902531352699    0.871976671327
