8
0 1 
 C   -0.386002005819   -0.634521696653    0.178695318919
 C    0.392997994181    0.629478303347   -0.177304681081
 H   -0.029002005819   -1.048521696653    1.121695318919
 H   -1.441002005819   -0.383521696653    0.291695318919
 H   -0.276002005819   -1.379521696653   -0.610304681081
 H    0.401997994181    1.297478303347    0.679695318919
 H   -0.158002005819    1.131478303347   -0.971304681081
 H    1.418709994181    0.442659303347   -0.528034681081
