11
0 1 
 C   -0.080371023840   -0.032188447765   -0.631530912147
 C   -0.658371023840   -0.932188447765    0.421469087853
 C    0.735628976160    0.957811552235    0.157469087853
 H   -0.888371023840    0.481811552235   -1.153530912147
 H    0.535628976160   -0.591188447765   -1.338530912147
 H   -1.587371023840   -1.376188447765    0.062469087853
 H    0.060628976160   -1.704188447765    0.696469087853
 H    0.921628976160    1.873811552235   -0.404530912147
 H    1.684628976160    0.503811552235    0.438469087853
 H   -0.818233023840   -0.249208447765    1.268809087853
 H    0.128525976160    1.139511552235    1.056589087853
