13
1 1 
 C   -1.248709906934    1.153213103784   -1.029251079520
 C    0.315290093066   -0.277786896216    0.246748920480
 N    0.048290093066    0.838213103784   -0.412251079520
 N   -0.606709906934   -1.210786896216    0.381748920480
 N    1.510290093066   -0.464786896216    0.770748920480
 H    0.775290093066    1.537213103784   -0.462251079520
 H   -1.524709906934   -1.052786896216    0.000748920480
 H   -0.414709906934   -2.068786896216    0.873748920480
 H    2.203290093066    0.266213103784    0.700748920480
 H    1.614290093066   -1.178786896216    1.469748920480
 H   -1.972709906934    1.376213103784   -0.243251079520
 H   -1.613709906934    0.305213103784   -1.613251079520
 H   -1.178579906934    2.026541103784   -1.694371079520
