8
0 1 
 C   -0.078417732828   -0.660422641405    0.376314498235
 C    0.082582267172    0.662577358595   -0.373685501765
 H   -1.105417732828   -0.774422641405    0.720314498235
 H    0.149582267172   -1.495422641405   -0.287685501765
 H    0.563582267172   -0.706422641405    1.240314498235
 H   -0.740417732828    0.768577358595   -1.075685501765
 H    0.061162267172    1.518017358595    0.317524498235
 H    1.021922267172    0.664017358595   -0.946085501765
