8
0 1 
 C    0.294767114406    0.001906451333    0.698604650025
 C   -0.296232885594   -0.008093548667   -0.698395349975
 H    1.368767114406    0.097906451333    0.576604650025
 H   -0.091232885594    0.860906451333    1.245604650025
 H    0.041767114406   -0.902093548667    1.252604650025
 H   -1.382232885594    0.050906451333   -0.627395349975
 H   -0.004662885594   -0.921013548667   -1.238365349975
 H    0.085047114406    0.887056451333   -1.211545349975
