9
0 1 
 C   -0.271027536857   -0.253568289906    0.421313559959
 C    0.144972463143    1.206431710094    0.432313559959
 O    0.136972463143   -0.829568289906   -0.784686440041
 H    0.215972463143   -0.774568289906    1.247313559959
 H   -1.348027536857   -0.350568289906    0.538313559959
 H    0.036972463143    1.563431710094    1.455313559959
 H   -0.247027536857   -1.714568289906   -0.850686440041
 H   -0.524868536857    1.787673710094   -0.218436440041
 H    1.194042463143    1.308868710094    0.117733559959
