19
0 1 
 C    0.909528213429   -2.281174315130    0.606075720278
 C    0.050528213429   -3.333174315130   -0.102924279722
 C    0.452528213429   -0.873174315130    0.319075720278
 C    0.814528213429   -0.244174315130   -0.868924279722
 C   -0.372471786571   -0.197174315130    1.217075720278
 C    0.381528213429    1.045825684870   -1.150924279722
 C   -0.814471786571    1.092825684870    0.942075720278
 C   -0.434471786571    1.714825684870   -0.244924279722
 O   -0.857471786571    2.976825684870   -0.524924279722
 H    0.852528213429   -2.465174315130    1.677075720278
 H    1.949528213429   -2.391174315130    0.295075720278
 H    0.134528213429   -3.154174315130   -1.175924279722
 H    1.441528213429   -0.764174315130   -1.581924279722
 H   -0.645471786571   -0.674174315130    2.145075720278
 H    0.670528213429    1.526825684870   -2.071924279722
 H   -1.445471786571    1.612825684870    1.643075720278
 H   -0.550471786571    3.247825684870   -1.409924279722
 H   -1.003741786571   -3.224525315130    0.191555720278
 H    0.450488213429   -4.340268315130    0.086265720278
