8
0 1 
 C    0.481033937493    0.014271777634   -0.583614467179
 C   -0.487966062507   -0.009728222366    0.579385532821
 H    0.055033937493    0.538271777634   -1.442614467179
 H    1.396033937493    0.527271777634   -0.283614467179
 H    0.756033937493   -1.002728222366   -0.866614467179
 H   -0.111966062507   -0.731728222366    1.306385532821
 H   -1.480020062507   -0.348238222366    0.245855532821
 H   -0.532576062507    0.963051777634    1.090955532821
