8
0 1 
 C   -0.106226406305    0.726739716604   -0.202705397724
 C    0.105773593695   -0.727260283396    0.204294602276
 H    0.751773593695    1.324739716604    0.104294602276
 H   -0.210226406305    0.786739716604   -1.286705397724
 H   -1.007226406305    1.116739716604    0.268294602276
 H    1.023773593695   -1.083260283396   -0.261705397724
 H    0.187653593695   -0.799800283396    1.298844602276
 H   -0.740356406305   -1.338960283396   -0.141945397724
