7
-1 1 
 C    0.810834751824   -0.487799895000   -1.048663982108
 C   -0.045165248176    0.023200105000    0.070336017892
 O   -0.506165248176   -0.803799895000    0.890336017892
 O   -0.259165248176    1.270200105000    0.088336017892
 H    1.600834751824    0.226200105000   -1.271663982108
 H    0.196834751824   -0.660799895000   -1.929663982108
 H    1.231985251824   -1.435599895000   -0.682123982108
