14
0 1 
 C    0.339886030143    0.064269519988    0.178947937344
 C   -0.784113969857    0.790269519988    0.975947937344
 C    0.016886030143   -1.446730480012    0.170947937344
 C    0.474886030143    0.603269519988   -1.304052062656
 H    1.294886030143    0.212269519988    0.680947937344
 H   -0.983113969857    0.260269519988    1.909947937344
 H   -1.697113969857    0.800269519988    0.377947937344
 H   -0.943113969857   -1.612730480012   -0.318052062656
 H    0.793886030143   -1.986730480012   -0.370052062656
 H   -0.031113969857   -1.826730480012    1.193947937344
 H    0.708886030143    1.669269519988   -1.300052062656
 H    1.276886030143    0.076269519988   -1.826052062656
 H   -0.460113969857    0.449269519988   -1.847052062656
 H   -0.526073969857    1.826669519988    1.238997937344
