7
-1 1 
 C   -0.940914544252   -1.002668933319    0.427570165082
 C    0.058085455748    0.055331066681   -0.019429834918
 O    0.386085455748    0.956331066681    0.780570165082
 O    0.504085455748   -0.007668933319   -1.186429834918
 H   -0.962914544252   -1.820668933319   -0.295429834918
 H   -1.934914544252   -0.549668933319    0.450570165082
 H   -0.718134544252   -1.405828933319    1.426490165082
