11
0 1 
 C   -0.405391601229   -0.215828484409   -0.462001830354
 C   -0.595391601229    0.940171515591    0.486998169646
 C    0.964608398771   -0.742828484409   -0.066001830354
 H   -0.423391601229    0.125171515591   -1.498001830354
 H   -1.142391601229   -0.966828484409   -0.267001830354
 H   -1.386391601229    1.611171515591    0.152998169646
 H   -0.798391601229    0.573171515591    1.495998169646
 H    0.852608398771   -1.394828484409    0.798998169646
 H    0.391518398771    1.424563515591    0.450018169646
 H    1.505158398771    0.167375515591    0.232878169646
 H    1.432008398771   -1.319693484409   -0.877641830354
