8
0 1 
 C    0.739421070693   -0.021127139250    0.172389345079
 C   -0.740578929307    0.023872860750   -0.178610654921
 H    1.266421070693    0.796872860750   -0.325610654921
 H    0.872421070693    0.076872860750    1.251389345079
 H    1.171421070693   -0.972127139250   -0.137610654921
 H   -1.220578929307   -0.848127139250    0.262389345079
 H   -0.883818929307    0.004442860750   -1.269070654921
 H   -1.192078929307    0.909372860750    0.292589345079
