11
0 1 
 C    0.351434378863   -0.146038267090    0.419214512001
 C    0.754434378863   -0.205038267090   -1.050785487999
 C   -1.085565621137    0.338961732910    0.654214512001
 H    0.450434378863   -1.147038267090    0.838214512001
 H    1.039434378863    0.506961732910    0.956214512001
 H    0.706434378863    0.804961732910   -1.455785487999
 H   -1.784565621137   -0.317038267090    0.136214512001
 H    0.076100378863   -0.860811267090   -1.616314487999
 H    1.808040378863   -0.505553267090   -1.148795487999
 H   -1.316547621137    0.294068732910    1.728752512001
 H   -1.221076621137    1.368697732910    0.291886712001
