8
0 1 
 C    0.661334595445   -0.383897322251    0.024601647578
 C   -0.657665404555    0.391102677749   -0.027398352422
 H    1.504334595445    0.280102677749   -0.156398352422
 H    0.773334595445   -0.847897322251    1.001601647578
 H    0.651334595445   -1.167897322251   -0.732398352422
 H   -1.443665404555   -0.311897322251    0.249601647578
 H   -0.867038404555    0.758038677749   -1.043038352422
 H   -0.661988404555    1.203757677749    0.713931647578
