6
0 1 
 C   -0.403820619115    0.196985655528    0.576868069948
 O    0.370179380885   -0.137014344472   -0.566131930052
 H    0.750179380885   -1.035014344472   -0.479131930052
 H   -1.060820619115   -0.635014344472    0.831868069948
 H   -1.016820619115    1.067985655528    0.341868069948
 H    0.260669380885    0.431085655528    1.421651069948
