11
0 1 
 C    0.265289812447   -0.455091858805    0.179406480885
 C    1.003289812447    0.731908141195   -0.435593519115
 C   -1.251710187553   -0.301091858805    0.266406480885
 H    0.494289812447   -1.351091858805   -0.400593519115
 H    0.636289812447   -0.615091858805    1.186406480885
 H    0.731289812447    1.638908141195    0.105406480885
 H   -1.648710187553   -0.122091858805   -0.730593519115
 H    0.732419812447    0.831308141195   -1.497077519115
 H    2.089399812447    0.588258141195   -0.336922519115
 H   -1.703330187553   -1.229691858805    0.645532480885
 H   -1.532510187553    0.548538141195    0.906160480885
