11
0 1 
 C   -0.543854793063   -0.131281009149    0.037162997791
 C   -0.060854793063    1.248718990851   -0.425837002209
 C    0.573145206937   -1.123281009149    0.391162997791
 H   -1.189854793063   -0.007281009149    0.906162997791
 H   -1.151854793063   -0.574281009149   -0.753837002209
 H    0.509145206937    1.721718990851    0.375162997791
 H    1.176145206937   -1.329281009149   -0.492837002209
 H   -0.915754793063    1.895938990851   -0.671287002209
 H    0.600935206937    1.141068990851   -1.297867002209
 H    1.220795206937   -0.707861009149    1.177282997791
 H    0.126275206937   -2.070451009149    0.727582997791
