8
0 1 
 C    0.230842640636    0.621677083740   -0.385340570673
 C   -0.222157359364   -0.618322916260    0.386659429327
 H    0.299842640636    0.402677083740   -1.451340570673
 H   -0.501157359364    1.417677083740   -0.240340570673
 H    1.189842640636    0.960677083740   -0.010340570673
 H   -1.191157359364   -0.913322916260   -0.019340570673
 H    0.472462640636   -1.459032916260    0.242719429327
 H   -0.373247359364   -0.448612916260    1.462939429327
