11
0 1 
 C   -0.492715142246   -0.417877246092    0.075008128238
 C    0.035284857754    0.268122753908   -1.191991871762
 C    0.412284857754    0.120122753908    1.125008128238
 H   -0.370715142246   -1.499877246092   -0.007991871762
 H   -1.535715142246   -0.162877246092    0.267008128238
 H   -0.157715142246   -0.369877246092   -2.054991871762
 H   -0.429715142246    1.236122753908   -1.349991871762
 H    0.415284857754   -0.517877246092    2.010008128238
 H    0.101284857754    1.126122753908    1.407008128238
 H    1.114614857754    0.377100753908   -1.009861871762
 H    1.400214857754    0.163982753908    0.643268128238
