8
0 1 
 C   -0.371686827129   -0.548639740363    0.377078089829
 C    0.371313172871    0.547360259637   -0.381921910171
 H    0.083313172871   -1.518639740363    0.218078089829
 H   -0.334686827129   -0.335639740363    1.444078089829
 H   -1.411686827129   -0.577639740363    0.064078089829
 H    1.428313172871    0.506360259637   -0.117921910171
 H    0.244433172871    0.403279259637   -1.465038910171
 H   -0.005236827129    1.537514259637   -0.085598910171
