11
0 1 
 C   -0.574407277416   -0.091241820595   -0.239053444000
 C   -0.141407277416    1.043758179405    0.644946556000
 C    0.671592722584   -0.956241820595   -0.427053444000
 H   -0.967407277416    0.274758179405   -1.188053444000
 H   -1.342407277416   -0.669241820595    0.272946556000
 H    0.287592722584    1.834758179405    0.028946556000
 H   -0.975407277416    1.431758179405    1.223946556000
 H    0.421592722584   -2.011241820595   -0.343053444000
 H    0.647322722584    0.618271179405    1.282806556000
 H    1.339392722584   -0.652557820595    0.392586556000
 H    1.115862722584   -0.782145820595   -1.418173444000
