10
-1 1 
 C    0.980177752136   -0.406634583574    0.178548159373
 C    0.509177752136   -1.786634583574    0.638548159373
 C   -0.180822247864    0.499365416426   -0.172451840627
 O   -1.326822247864    0.015365416426   -0.164451840627
 O    0.070177752136    1.688365416426   -0.470451840627
 H    1.602177752136    0.056365416426    0.947548159373
 H    1.591177752136   -0.515634583574   -0.718451840627
 H   -0.447822247864   -2.036634583574    0.184548159373
 H    0.424327752136   -1.818174583574    1.734818159373
 H    1.193517752136   -2.556344583574    0.252248159373
