13
1 1 
 C   -0.329380196510   -1.919643034503   -0.314789327967
 C    0.097619803490    0.462356965497    0.069210672033
 N    0.205619803490   -0.629643034503   -0.688789327967
 N   -0.590380196510    0.434356965497    1.213210672033
 N    0.636619803490    1.619356965497   -0.317789327967
 H    0.708619803490   -0.574643034503   -1.577789327967
 H   -0.975380196510   -0.441643034503    1.556210672033
 H   -0.746380196510    1.291356965497    1.742210672033
 H    1.196619803490    1.635356965497   -1.159789327967
 H    0.492619803490    2.460356965497    0.224210672033
 H   -0.487380196510   -2.501643034503   -1.224789327967
 H   -1.302380196510   -1.831643034503    0.167210672033
 H    0.373769803490   -2.472383034503    0.325570672033
