8
0 1 
 C    0.110890425095   -0.544367323981    0.516672633254
 C   -0.110109574905    0.542632676019   -0.517327366746
 H    0.489890425095   -1.452367323981    0.044672633254
 H    0.816890425095   -0.193367323981    1.264672633254
 H   -0.820109574905   -0.767367323981    1.027672633254
 H   -0.419109574905    1.463632676019   -0.032327366746
 H   -0.898599574905    0.245061276019   -1.224247366746
 H    0.821740425095    0.725062176019   -1.072647366746
