9
0 1 
 C   -0.606904070990   -1.238380592809    0.459808477881
 C    0.020095929010    0.037619407191   -0.068191522119
 O    0.212095929010    0.194619407191   -1.271191522119
 N    0.346095929010    0.957619407191    0.823808477881
 H    0.149095929010   -1.794380592809    1.015808477881
 H   -0.931904070990   -1.841380592809   -0.368191522119
 H    0.783095929010    1.804619407191    0.489808477881
 H    0.281095929010    0.777619407191    1.813808477881
 H   -1.469254070990   -1.043470592809    1.114298477881
