8
0 1 
 C    0.372618279438   -0.085044594125   -0.661550999649
 C   -0.370381720562    0.081955405875    0.664449000351
 H    0.083618279438   -1.021044594125   -1.134550999649
 H    0.105618279438    0.736955405875   -1.323550999649
 H    1.450618279438   -0.067044594125   -0.509550999649
 H   -0.163381720562    1.073955405875    1.069449000351
 H   -0.051731720562   -0.685374594125    1.385339000351
 H   -1.451371720562   -0.000664594125    0.478359000351
