11
0 1 
 C   -0.433454206741    0.132849704962   -0.324388320700
 C    1.024545793259    0.461849704962   -0.725388320700
 C   -0.622454206741   -0.589150295038    1.033611679300
 H   -0.970454206741    1.078849704962   -0.299388320700
 H   -0.842454206741   -0.491150295038   -1.120388320700
 H    1.534545793259   -0.454150295038   -1.028388320700
 H    1.546545793259    0.898849704962    0.125611679300
 H    0.000545793259   -1.489150295038    1.026611679300
 H   -0.260454206741    0.078849704962    1.823611679300
 H    1.035195793259    1.174229704962   -1.563478320700
 H   -1.670041206741   -0.862400295038    1.228281679300
