8
0 1 
 C    0.241407670326    0.411199360223    0.608722163751
 C   -0.245592329674   -0.412800639777   -0.605277836249
 H    1.119407670326   -0.064800639777    1.047722163751
 H    0.490407670326    1.422199360223    0.289722163751
 H   -0.543592329674    0.463199360223    1.362722163751
 H    0.609407670326   -0.557800639777   -1.265277836249
 H   -0.624742329674   -1.402830639777   -0.311881836249
 H   -1.001062329674    0.159099360223   -1.164017836249
