19
0 1 
 C   -2.298183786920    0.462233907130   -0.962658816371
 C   -2.200183786920    1.509233907130   -2.087658816371
 C   -0.995183786920    0.091233907130   -0.303658816371
 C    0.008816213080   -0.543766092870   -1.033658816371
 C   -0.725183786920    0.397233907130    1.017341183629
 C    1.256816213080   -0.850766092870   -0.454658816371
 C    0.510816213080    0.122233907130    1.595341183629
 C    1.490816213080   -0.516766092870    0.868341183629
 O    2.708816213080   -0.730766092870    1.446341183629
 H   -2.992183786920    0.829233907130   -0.204658816371
 H   -2.726183786920   -0.444766092870   -1.371658816371
 H   -1.490183786920    1.138233907130   -2.828658816371
 H   -0.157183786920   -0.780766092870   -2.074658816371
 H   -1.484183786920    0.882233907130    1.613341183629
 H    2.027816213080   -1.325766092870   -1.045658816371
 H    0.701816213080    0.397233907130    2.623341183629
 H    3.300816213080   -1.190766092870    0.836341183629
 H   -1.865013786920    2.478013907130   -1.688749816371
 H   -3.163743786920    1.626953907130   -2.605048816371
