12
0 1 
 C   -1.680788342492    1.207907936248   -0.765469011626
 C    0.569211657508   -1.282092063752    0.614530988374
 C   -0.518788342492    0.421907936248   -0.247469011626
 C    0.795211657508    0.759907936248   -0.175469011626
 N   -0.637788342492   -0.863092063752    0.244530988374
 N    1.453211657508   -0.321092063752    0.368530988374
 H    0.801211657508   -2.252092063752    1.038530988374
 H    2.458211657508   -0.391092063752    0.544530988374
 H    1.238211657508    1.688907936248   -0.505469011626
 H   -2.183788342492    0.613907936248   -1.529469011626
 H   -1.291788342492    2.109907936248   -1.241469011626
 H   -2.407807342492    1.495547936248    0.008290988374
