11
1 1 
 C    0.432934536151   -0.362657276927    0.179991331756
 C    0.419934536151    0.165342723073   -1.252008668244
 N   -0.727065463849    0.151342723073    0.957991331756
 H    0.412934536151   -1.458657276927    0.156991331756
 H    1.364934536151   -0.052657276927    0.654991331756
 H    0.428934536151    1.257342723073   -1.228008668244
 H   -0.497065463849   -0.155657276927   -1.753008668244
 H   -1.607065463849   -0.133657276927    0.542991331756
 H   -0.719065463849   -0.204657276927    1.906991331756
 H   -0.723065463849    1.163342723073    1.013991331756
 H    1.286594536151   -0.168817276927   -1.841279668244
