19
0 1 
 C   -0.603170101017    0.471619187052   -2.853291161856
 C    0.362829898983    0.462619187052    0.759708838144
 C   -0.124170101017   -0.219380812948   -0.386291161856
 C   -0.155170101017    0.730619187052   -1.464291161856
 C    0.354829898983    1.889619187052   -0.972291161856
 C    0.449829898983   -0.148380812948    1.999708838144
 C    0.055829898983   -1.471380812948    2.105708838144
 C   -0.545170101017   -1.549380812948   -0.249291161856
 C   -0.442170101017   -2.166380812948    0.994708838144
 N    0.656829898983    1.740619187052    0.363708838144
 H    1.039829898983    2.474619187052    0.949708838144
 H    0.850829898983    0.377619187052    2.837708838144
 H    0.489829898983    2.801619187052   -1.546291161856
 H    0.129829898983   -1.978380812948    3.057708838144
 H   -0.951170101017   -2.085380812948   -1.096291161856
 H   -0.725170101017    1.418619187052   -3.382291161856
 H   -1.582170101017    0.002619187052   -2.791291161856
 H   -0.752170101017   -3.189380812948    1.116708838144
 H    0.072268898983   -0.187980812948   -3.417837161856
