15
0 1 
 C   -1.399780115643    1.111602085508   -1.683040679335
 C   -0.189780115643   -0.892397914492   -0.802040679335
 C   -0.547780115643    0.444602085508   -0.632040679335
 C    0.609219884357   -1.548397914492    0.137959320665
 C   -0.072780115643    1.133602085508    0.492959320665
 C    1.057219884357   -0.862397914492    1.263959320665
 C    0.714219884357    0.478602085508    1.443959320665
 H   -0.526780115643   -1.407397914492   -1.686040679335
 H    0.884219884357   -2.584397914492   -0.008040679335
 H   -2.148780115643    0.398602085508   -2.031040679335
 H   -0.753780115643    1.350602085508   -2.528040679335
 H   -0.307780115643    2.172602085508    0.660959320665
 H    1.671219884357   -1.367397914492    1.997959320665
 H    1.065219884357    1.012602085508    2.316959320665
 H   -1.914120115643    2.029652085508   -1.362640679335
