8
0 1 
 C   -0.104230504135   -0.129067827975    0.734091159590
 C    0.102769495865    0.128932172025   -0.740908840410
 H    0.738769495865    0.268932172025    1.298091159590
 H   -1.000230504135    0.393932172025    1.066091159590
 H   -0.237230504135   -1.193067827975    0.932091159590
 H    0.298769495865    1.187932172025   -0.899908840410
 H    0.991269495865   -0.470120627975   -0.989318840410
 H   -0.773951504135   -0.185992827975   -1.325868840410
