7
-1 1 
 C   -1.344657898231    0.436764127504    0.284788855337
 C    0.076342101769   -0.024235872496   -0.018211144663
 O    0.289342101769   -1.247235872496   -0.167211144663
 O    0.984342101769    0.833764127504   -0.104211144663
 H   -1.368657898231    0.917764127504    1.265788855337
 H   -2.023657898231   -0.418235872496    0.330788855337
 H   -1.720357898231    1.150665127504   -0.463004144663
