11
0 1 
 C   -0.186201274686    0.530021283158   -0.162444621219
 C    1.031798725314   -0.162978716842   -0.756444621219
 C   -0.859201274686   -0.328978716842    0.905555378781
 H    0.129798725314    1.472021283158    0.287555378781
 H   -0.900201274686    0.751021283158   -0.959444621219
 H    1.699798725314   -0.446978716842    0.061555378781
 H   -1.098201274686   -1.309978716842    0.493555378781
 H   -0.171201274686   -0.470978716842    1.740555378781
 H    1.564584325314    0.519771283158   -1.434672621219
 H    0.738496725314   -1.068108716842   -1.308457621219
 H   -1.801096274686    0.100011283158    1.278117378781
