8
0 1 
 C    0.376158013894    0.632732746617    0.242824716018
 C   -0.381841986106   -0.626267253383   -0.248175283982
 H   -0.296841986106    1.332732746617    0.736824716018
 H    1.126158013894    0.332732746617    0.972824716018
 H    0.881158013894    1.124732746617   -0.585175283982
 H   -0.920841986106   -1.055267253383    0.595824716018
 H    0.349158013894   -1.365267253383   -0.570175283982
 H   -1.071111986106   -0.446647253383   -1.086415283982
