19
0 1 
 C    2.404938399691   -1.386590292955   -1.054766083435
 C    0.324938399691    0.045409707045   -0.310766083435
 C    1.193938399691   -1.081590292955   -0.212766083435
 C   -0.696061600309   -0.128590292955    0.659233916565
 C    0.692938399691   -1.856590292955    0.766233916565
 C   -0.670061600309    2.125409707045   -0.913766083435
 C   -1.684061600309    1.933409707045    0.025233916565
 C    0.310938399691    1.176409707045   -1.125766083435
 C   -1.697061600309    0.803409707045    0.858233916565
 N   -0.424061600309   -1.301590292955    1.291233916565
 H   -0.698061600309    2.998409707045   -1.538766083435
 H   -2.460061600309    2.680409707045    0.131233916565
 H    1.057938399691    1.316409707045   -1.892766083435
 H   -2.462061600309    0.653409707045    1.606233916565
 H    2.170938399691   -1.097590292955   -2.073766083435
 H    2.555938399691   -2.465590292955   -1.057766083435
 H    1.131938399691   -2.790590292955    1.098233916565
 H   -0.904061600309   -1.699590292955    2.104233916565
 H    3.351018399691   -0.926841292955   -0.732942083435
