15
0 1 
 C   -1.686237637696    0.387092854890   -1.692846540634
 C    1.661762362304   -0.128907145110   -0.035846540634
 C    1.279762362304   -0.281907145110    1.272153459366
 C    0.694762362304    0.093092854890   -0.980846540634
 C   -0.650237637696    0.157092854890   -0.639846540634
 C   -0.061237637696   -0.248907145110    1.621153459366
 C   -1.028237637696   -0.014907145110    0.674153459366
 H    2.706762362304   -0.179907145110   -0.314846540634
 H    2.027762362304   -0.459907145110    2.033153459366
 H    0.991762362304    0.207092854890   -2.012846540634
 H   -0.346237637696   -0.398907145110    2.653153459366
 H   -2.528237637696   -0.258907145110   -1.496846540634
 H   -1.271237637696    0.085092854890   -2.656846540634
 H   -2.071237637696    0.015092854890    0.958153459366
 H   -2.013777637696    1.435070254890   -1.759646540634
