7
-1 1 
 C   -0.291099378180    1.371389407293    0.000104766369
 C   -0.015099378180   -0.090610592707   -0.042895233631
 O   -0.066099378180   -0.843610592707   -1.064895233631
 O    0.325900621820   -0.440610592707    1.105104766369
 H   -0.898099378180    1.554389407293   -0.845895233631
 H    0.696900621820    1.720389407293   -0.269895233631
 H   -0.276179378180    1.856729407293    0.987134766369
