8
0 1 
 C   -0.117372222522   -0.742271815986   -0.127163683373
 C    0.120627777478    0.742728184014    0.126836316627
 H   -0.469372222522   -1.235271815986    0.778836316627
 H   -0.875372222522   -0.869271815986   -0.901163683373
 H    0.813627777478   -1.201271815986   -0.455163683373
 H   -0.805372222522    1.165728184014    0.513836316627
 H    0.917075777478    0.871882184014    0.874496316627
 H    0.380649777478    1.262771184014   -0.806943683373
