9
0 1 
 C    0.684130686283    0.088401327916    1.309735953459
 C   -0.747869313717   -1.083598672084   -0.713264046541
 S    0.030130686283    0.505401327916   -0.302264046541
 H    1.427130686283   -0.700598672084    1.216735953459
 H    1.173130686283    0.968401327916    1.728735953459
 H   -0.109869313717   -0.218598672084    1.988735953459
 H    0.009130686283   -1.868598672084   -0.721264046541
 H   -1.150869313717   -1.007598672084   -1.719264046541
 H   -1.545589313717   -1.356628672084   -0.006795046541
