8
0 1 
 C    0.102362111111    0.715828708413    0.261204039754
 C   -0.096637888889   -0.715171291587   -0.259795960246
 H    1.067362111111    1.103828708413   -0.066795960246
 H   -0.681637888889    1.354828708413   -0.134795960246
 H    0.049362111111    0.727828708413    1.347204039754
 H   -0.999637888889   -1.119171291587    0.198204039754
 H    0.753012111111   -1.368581291587   -0.012515960246
 H   -0.256617888889   -0.706561291587   -1.348065960246
