12
0 1 
 C   -1.008872950325    1.625510091043    1.136682775295
 C    0.050127049675    0.537510091043   -0.968317224705
 C   -0.323872950325    0.548510091043    0.331682775295
 C    0.629127049675   -1.402489908957   -0.103317224705
 N    0.627127049675   -0.689489908957   -1.215317224705
 N    0.047127049675   -0.687489908957    0.861682775295
 H   -0.082872950325    1.344510091043   -1.675317224705
 H    1.020127049675   -1.012489908957   -2.100317224705
 H   -1.909872950325    1.196510091043    1.575682775295
 H   -1.291872950325    2.425510091043    0.459682775295
 H    1.027127049675   -2.407489908957   -0.004317224705
 H   -0.349942950325    1.999170091043    1.934297775295
