8
0 1 
 C    0.478557626989    0.569705504095    0.176923721421
 C   -0.477442373011   -0.570294495905   -0.172076278579
 H    1.394557626989    0.169705504095    0.609923721421
 H    0.728557626989    1.119705504095   -0.729076278579
 H    0.013557626989    1.257705504095    0.881923721421
 H   -1.394442373011   -0.143294495905   -0.575076278579
 H   -0.712629773011   -1.186224495905    0.708442721421
 H   -0.042879873011   -1.210584495905   -0.953855278579
