19
0 1 
 C    1.911433835946   -2.078741725286   -0.873394008181
 C   -0.564566164054    0.212258274714    0.747605991819
 C    0.277433835946   -0.116741725286   -0.346394008181
 C    0.948433835946   -1.341741725286   -0.015394008181
 C    0.492433835946   -1.709741725286    1.209605991819
 C   -1.352566164054    1.354258274714    0.762605991819
 C   -1.304566164054    2.183258274714   -0.346394008181
 C    0.308433835946    0.738258274714   -1.454394008181
 C   -0.481566164054    1.883258274714   -1.444394008181
 N   -0.411566164054   -0.781741725286    1.675605991819
 H   -0.875566164054   -0.840741725286    2.576605991819
 H   -1.986566164054    1.583258274714    1.608605991819
 H    0.798433835946   -2.605741725286    1.742605991819
 H   -1.912566164054    3.079258274714   -0.368394008181
 H    0.885433835946    0.466258274714   -2.321394008181
 H    2.539433835946   -2.722741725286   -0.254394008181
 H    2.556433835946   -1.352741725286   -1.369394008181
 H   -0.475566164054    2.548258274714   -2.299394008181
 H    1.392005835946   -2.680411725286   -1.633784008181
