8
0 1 
 C   -0.135010823404   -0.211832136346    0.715798095421
 C    0.130989176596    0.204167863654   -0.719201904579
 H    0.369989176596   -1.149832136346    0.943798095421
 H    0.252989176596    0.554167863654    1.389798095421
 H   -1.205010823404   -0.321832136346    0.886798095421
 H    1.209989176596    0.208167863654   -0.890201904579
 H   -0.223010823404    1.231167863654   -0.816201904579
 H   -0.357060823404   -0.430582136346   -1.473461904579
