8
0 1 
 C   -0.654940663842   -0.262407195932    0.283580461746
 C    0.661059336158    0.261592804068   -0.299419538254
 H   -0.581940663842   -0.211407195932    1.370580461746
 H   -1.480940663842    0.381592804068    0.025580461746
 H   -0.889940663842   -1.314407195932    0.165580461746
 H    0.435059336158    0.957592804068   -1.099419538254
 H    1.200039336158   -0.586197195932   -0.747483538254
 H    1.244869336158    0.782522804068    0.473754861746
