16
0 1 
 C    0.652570342536   -1.678946540636    2.336498494422
 C   -0.584429657464   -0.597946540636   -1.134501505578
 C   -0.323429657464    0.785053459364   -1.101501505578
 C   -0.235429657464   -1.403946540636   -0.030501505578
 C    0.365570342536   -0.843946540636    1.111498494422
 C    0.300570342536    1.334053459364    0.024498494422
 C    0.636570342536    0.529053459364    1.114498494422
 O   -0.714429657464    1.620053459364   -2.121501505578
 H   -1.062429657464   -1.030946540636   -2.001501505578
 H   -0.455429657464   -2.462946540636   -0.055501505578
 H    0.590570342536    2.369053459364    0.027498494422
 H   -0.790429657464    2.515053459364   -1.799501505578
 H    1.626570342536   -1.390946540636    2.735498494422
 H    0.735570342536   -2.718946540636    2.016498494422
 H    1.120570342536    0.974053459364    1.975498494422
 H   -0.094729657464   -1.621136540636    3.141608494422
