16
0 1 
 C   -2.678344758873    0.838742470235   -0.859497870626
 C    0.377655241127   -1.361257529765   -0.115497870626
 C    1.259655241127   -0.399257529765    0.376502129374
 C   -0.909344758873   -0.964257529765   -0.505497870626
 C   -1.310344758873    0.378742470235   -0.405497870626
 C    0.846655241127    0.927742470235    0.495502129374
 C   -0.419344758873    1.304742470235    0.120502129374
 O    2.516655241127   -0.720257529765    0.781502129374
 H    0.684655241127   -2.391257529765   -0.193497870626
 H   -1.602344758873   -1.696257529765   -0.893497870626
 H    1.525655241127    1.668742470235    0.892502129374
 H    3.006655241127    0.047742470235    1.084502129374
 H   -3.121344758873    1.450742470235   -0.075497870626
 H   -3.318344758873   -0.032257529765   -0.999497870626
 H   -0.719344758873    2.339742470235    0.220502129374
 H   -2.659764758873    1.409012470235   -1.799946870626
