8
0 1 
 C    0.078997439340   -0.619323480722   -0.437579583838
 C   -0.081002560660    0.623676519278    0.433420416162
 H    1.130997439340   -0.841323480722   -0.612579583838
 H   -0.363002560660   -1.478323480722    0.068420416162
 H   -0.428002560660   -0.470323480722   -1.391579583838
 H    0.521997439340    0.464676519278    1.327420416162
 H    0.286937439340    1.515606519278   -0.094879583838
 H   -1.125052560660    0.757856519278    0.752720416162
