14
0 1 
 C   -0.284570641026   -0.101547605385    0.224297624191
 C   -0.664570641026    1.205452394615   -0.481702375809
 C   -0.058570641026   -1.221547605385   -0.779702375809
 C    0.967429358974    0.109452394615    1.063297624191
 H   -1.083570641026   -0.385547605385    0.900297624191
 H    0.192429358974    1.533452394615   -1.068702375809
 H    0.372429358974   -2.085547605385   -0.272702375809
 H   -1.003570641026   -1.537547605385   -1.222702375809
 H    0.615429358974   -0.893547605385   -1.569702375809
 H    1.235429358974   -0.821547605385    1.559297624191
 H    1.800429358974    0.420452394615    0.434297624191
 H    0.789429358974    0.855452394615    1.837297624191
 H   -0.929266641026    1.977608394615    0.255665624191
 H   -1.509530641026    1.034294394615   -1.164892375809
