12
0 1 
 C   -1.975042239958    0.615755451199    0.723136750865
 C    1.138957760042    0.048755451199   -1.011863249135
 C   -0.628042239958    0.194755451199    0.266136750865
 C    0.219957760042   -0.690244548801    0.831136750865
 N   -0.050042239958    0.630755451199   -0.897863249135
 N    1.322957760042   -0.770244548801    0.015136750865
 H    1.844957760042    0.210755451199   -1.817863249135
 H    2.170957760042   -1.311244548801    0.168136750865
 H    0.045957760042   -1.231244548801    1.749136750865
 H   -2.418042239958    1.271755451199   -0.025863249135
 H   -1.849042239958    1.199755451199    1.635136750865
 H   -2.667016239958   -0.214180548801    0.928996750865
