7
-1 1 
 C   -1.141951190308    0.977011486832   -0.289473067037
 C    0.079048809692   -0.033988513168    0.012526932963
 O    0.662048809692   -0.580988513168   -0.966473067037
 O    0.414048809692   -0.351988513168    1.234526932963
 H   -1.173951190308    1.720011486832    0.499526932963
 H   -2.055951190308    0.391011486832   -0.183473067037
 H   -1.192751190308    1.467586486832   -1.272713067037
