12
0 1 
 C   -0.293511024382   -2.184380737858   -0.131848118875
 C    1.109488975618   -0.022380737858    0.035151881125
 C   -0.057511024382   -0.708380737858   -0.071848118875
 C   -0.537511024382    1.433619262142    0.058151881125
 N    0.788488975618    1.312619262142    0.105151881125
 N   -1.078511024382    0.218619262142   -0.000848118875
 H    2.086488975618   -0.437380737858    0.034151881125
 H    1.446488975618    2.085619262142    0.208151881125
 H    0.209488975618   -2.577380737858   -1.015848118875
 H   -1.362511024382   -2.381380737858   -0.233848118875
 H   -1.085511024382    2.368619262142    0.114151881125
 H    0.104338975618   -2.693420737858    0.758431881125
