8
0 1 
 C   -0.000558463139    0.714161525213   -0.301720139758
 C    0.000441536861   -0.715838474787    0.300279860242
 H   -1.012558463139    1.115161525213   -0.301720139758
 H    0.632441536861    1.379161525213    0.284279860242
 H    0.394441536861    0.719161525213   -1.317720139758
 H    1.007441536861   -1.129838474787    0.215279860242
 H   -0.709413463139   -1.377394474787   -0.217840139758
 H   -0.310960463139   -0.686284474787    1.354869860242
