8
0 1 
 C    0.531884358862    0.546510578056   -0.038578023682
 C   -0.536115641138   -0.538489421944    0.037421976318
 H    0.081884358862    1.540510578056   -0.023578023682
 H    1.228884358862    0.453510578056    0.794421976318
 H    1.091884358862    0.373510578056   -0.947578023682
 H   -0.100115641138   -1.480489421944   -0.274578023682
 H   -1.392469641138   -0.314629421944   -0.615681023682
 H   -0.859686641138   -0.667919421944    1.080757976318
