8
0 1 
 C    0.753410901819   -0.118178073687   -0.182385600840
 C   -0.755589098181    0.111821926313    0.180614399160
 H    0.921410901819    0.089821926313   -1.238385600840
 H    1.352410901819    0.568821926313    0.409614399160
 H    1.051410901819   -1.140178073687    0.029614399160
 H   -1.009589098181    1.140821926313   -0.076385600840
 H   -1.417009098181   -0.572608073687   -0.370812600840
 H   -0.872699098181   -0.010998073687    1.267444399160
