8
0 1 
 C    0.716289513562    0.090392220042   -0.251853787029
 C   -0.724710486438   -0.086607779958    0.247146212971
 H    1.281289513562    0.692392220042    0.459146212971
 H    1.200289513562   -0.884607779958   -0.322853787029
 H    0.724289513562    0.567392220042   -1.232853787029
 H   -0.668710486438   -0.544607779958    1.231146212971
 H   -1.188290486438    0.905918220042    0.347075212971
 H   -1.248600486438   -0.781547779958   -0.425607787029
