10
-1 1 
 C   -1.004126538050    0.245618416242   -0.306004899166
 C   -0.667126538050    1.578618416242   -0.975004899166
 C    0.221873461950   -0.433381583758    0.273995100834
 O    1.186873461950   -0.676381583758   -0.482004899166
 O    0.212873461950   -0.723381583758    1.489995100834
 H   -1.733126538050    0.420618416242    0.487995100834
 H   -1.462126538050   -0.416381583758   -1.043004899166
 H   -0.009126538050    1.370618416242   -1.819004899166
 H   -0.166560638050    2.247538416242   -0.259484899166
 H   -1.586544438050    2.032188416242   -1.373684899166
