8
0 1 
 C    0.614209545399    0.186415451995   -0.417573104548
 C   -0.617790454601   -0.190584548005    0.414426895452
 H    0.429209545399    0.005415451995   -1.476573104548
 H    0.847209545399    1.242415451995   -0.276573104548
 H    1.483209545399   -0.387584548005   -0.098573104548
 H   -0.356790454601   -0.093584548005    1.466426895452
 H   -0.922670454601   -1.229176548005    0.218526895452
 H   -1.437530454601    0.512155451995    0.204226895452
