12
0 1 
 C   -0.356057130089    0.089556617806    0.010304434283
 C   -0.124057130089   -0.893443382194   -1.144695565717
 C   -0.044057130089   -0.556443382194    1.370304434283
 O    0.485942869911    1.228556617806   -0.180695565717
 H   -1.396057130089    0.420556617806    0.008304434283
 H    0.927942869911   -1.186443382194   -1.154695565717
 H    0.893942869911   -1.111443382194    1.320304434283
 H    0.055942869911    0.209556617806    2.137304434283
 H   -0.852057130089   -1.222443382194    1.665304434283
 H    0.056942869911    1.796556617806   -0.848695565717
 H   -0.399537130089   -0.433293382194   -2.105099565717
 H   -0.758167130089   -1.773913382194   -0.963936565717
