12
0 1 
 C    0.208263236688    1.023745461512   -0.297650568865
 C    0.426263236688    0.790745461512   -1.792650568865
 C   -0.135736763312   -0.257254538488    0.438349431135
 O   -0.501736763312   -1.258254538488   -0.173650568865
 N   -0.004736763312   -0.245254538488    1.754349431135
 H    1.129263236688    1.409745461512    0.125349431135
 H   -0.574736763312    1.761745461512   -0.122650568865
 H    1.111263236688   -0.054254538488   -1.897650568865
 H   -0.240736763312   -1.079254538488    2.271349431135
 H    0.327263236688    0.583745461512    2.223349431135
 H    0.857179236688    1.687355461512   -2.262122568865
 H   -0.519758263312    0.526235461512   -2.287703568865
