12
0 1 
 C    1.508115093798   -1.555401578360   -0.483139933345
 C    0.650115093798    0.616598421640    0.629860066655
 C    0.485115093798   -0.513401578360   -0.111139933345
 C   -1.391884906202    0.620598421640   -0.118139933345
 N   -0.536884906202    1.301598421640    0.627860066655
 N   -0.810884906202   -0.492401578360   -0.563139933345
 H    1.571115093798    0.920598421640    1.108860066655
 H   -0.715884906202    2.183598421640    1.070860066655
 H    2.465115093798   -1.198401578360   -0.102139933345
 H    1.579115093798   -1.601401578360   -1.570139933345
 H   -2.408884906202    0.921598421640   -0.335139933345
 H    1.334886093798   -2.567462578360   -0.088519933345
