11
1 1 
 C    0.219837308993    0.090318060899    0.542466697838
 C   -1.024162691007    0.844318060899    0.086466697838
 N    0.720837308993   -0.821681939101   -0.527533302162
 H    0.990837308993    0.817318060899    0.816466697838
 H   -0.032162691007   -0.491681939101    1.433466697838
 H   -0.747162691007    1.522318060899   -0.722533302162
 H   -1.400162691007    1.438318060899    0.923466697838
 H    0.887837308993   -0.329681939101   -1.397533302162
 H    1.597837308993   -1.245681939101   -0.249533302162
 H    0.076837308993   -1.585681939101   -0.696533302162
 H   -1.812462691007    0.162958060899   -0.266136602162
