8
0 1 
 C    0.028394343724   -0.576244909817   -0.497200344424
 C   -0.028605656276    0.577755090183    0.496799655576
 H    0.796394343724   -0.392244909817   -1.250200344424
 H    0.271394343724   -1.490244909817    0.045799655576
 H   -0.933605656276   -0.692244909817   -0.996200344424
 H   -0.765605656276    0.345755090183    1.262799655576
 H   -0.320798656276    1.498954090183   -0.028571344424
 H    0.954737343724    0.712044090183    0.971143655576
