11
0 1 
 C   -0.287246176135    0.443662953596    0.366506798623
 C    1.189753823865    0.310662953596    0.043506798623
 C   -0.926246176135   -0.719337046404   -0.376493201377
 H   -0.660246176135    1.384662953596   -0.035493201377
 H   -0.473246176135    0.392662953596    1.439506798623
 H    1.643753823865    1.299662953596   -0.019493201377
 H    1.681753823865   -0.297337046404    0.801506798623
 H   -1.986246176135   -0.553337046404   -0.568493201377
 H   -0.792246176135   -1.631337046404    0.206506798623
 H    1.208463823865   -0.221497046404   -0.919019201377
 H   -0.339336176135   -0.790087046404   -1.304143201377
