15
0 1 
 C   -1.460649193103    0.661912021602    1.856946096431
 C   -0.009649193103    1.215912021602   -0.127053903569
 C   -0.587649193103    0.246912021602    0.698946096431
 C    0.847350806897    0.841912021602   -1.168053903569
 C    1.115350806897   -0.494087978398   -1.390053903569
 C   -0.293649193103   -1.099087978398    0.460946096431
 C    0.557350806897   -1.460087978398   -0.577053903569
 H   -0.207649193103    2.260912021602    0.048946096431
 H    1.293350806897    1.598912021602   -1.797053903569
 H   -0.959649193103    1.472912021602    2.385946096431
 H   -1.556649193103   -0.171087978398    2.552946096431
 H    1.778350806897   -0.777087978398   -2.195053903569
 H   -0.710649193103   -1.864087978398    1.100946096431
 H    0.819350806897   -2.492087978398   -0.731053903569
 H   -2.462228193103    1.002935921602    1.556043096431
