15
0 1 
 C    0.974244887429    1.257356179553    1.874258698832
 C   -0.738755112571   -0.953643820447   -1.412741301168
 C   -1.555755112571   -0.448643820447   -0.417741301168
 C    0.632244887429   -0.748643820447   -1.348741301168
 C   -1.000755112571    0.276356179553    0.637258698832
 C    1.190244887429   -0.030643820447   -0.285741301168
 C    0.377244887429    0.482356179553    0.719258698832
 H   -1.166755112571   -1.512643820447   -2.234741301168
 H   -2.618755112571   -0.623643820447   -0.460741301168
 H    1.271244887429   -1.145643820447   -2.125741301168
 H   -1.652755112571    0.681356179553    1.392258698832
 H    2.260244887429    0.115356179553   -0.246741301168
 H    0.323244887429    2.108356179553    2.080258698832
 H    1.928244887429    1.668356179553    1.582258698832
 H    1.099414887429    0.679167179553    2.801638698832
