9
0 1 
 C    0.362532413551   -1.173715130542    0.832006619313
 C   -0.057467586449    0.028284869458   -0.043993380687
 O   -1.169467586449    0.031284869458   -0.591993380687
 N    0.808532413551    1.056284869458   -0.185993380687
 H    1.191532413551   -0.878715130542    1.476006619313
 H    0.732532413551   -1.955715130542    0.169006619313
 H    0.498532413551    1.857284869458   -0.743993380687
 H    1.718532413551    1.033284869458    0.247006619313
 H   -0.447217586449   -1.590603130542    1.448856619313
