11
0 1 
 C   -0.008373710410    0.005841844634   -0.679032412898
 C    0.169626289590    1.181841844634    0.352967587102
 C   -0.155373710410   -1.180158155366    0.266967587102
 H    0.873626289590   -0.116158155366   -1.307032412898
 H   -0.895373710410    0.080841844634   -1.311032412898
 H    1.167626289590    1.172841844634    0.803967587102
 H   -0.013373710410    2.153841844634   -0.100032412898
 H   -0.750373710410   -1.991158155366   -0.150032412898
 H   -0.592899710410    0.940741844634    1.108227587102
 H   -0.696396710410   -0.757858155366    1.126597587102
 H    0.837166289590   -1.572698155366    0.532997587102
