14
0 1 
 C   -0.205891895969    0.084697387030   -0.266629978481
 C   -0.662891895969    0.863697387030    0.997370021519
 C    1.228108104031    0.494697387030   -0.699629978481
 C   -0.377891895969   -1.431302612970   -0.062629978481
 H   -0.879891895969    0.375697387030   -1.070629978481
 H   -1.711891895969    0.643697387030    1.146370021519
 H    1.944108104031    0.288697387030    0.096370021519
 H    1.509108104031   -0.089302612970   -1.576629978481
 H    1.260108104031    1.549697387030   -0.966629978481
 H   -1.302891895969   -1.655302612970    0.460370021519
 H   -0.378891895969   -1.924302612970   -1.034629978481
 H    0.449108104031   -1.825302612970    0.528370021519
 H   -0.554411895969    1.953807387030    0.897927021519
 H   -0.113371895969    0.542237387030    1.894415021519
