9
0 1 
 C   -1.031717981571    0.840125251433    0.548026228751
 C    0.006282018429   -0.080874748567   -0.025973771249
 O   -0.318717981571   -1.037874748567   -0.726973771249
 N    1.266282018429    0.249125251433    0.190026228751
 H   -1.221717981571    1.632125251433   -0.174973771249
 H   -0.641717981571    1.276125251433    1.466026228751
 H    2.003282018429   -0.339874748567   -0.169973771249
 H    1.488282018429    1.081125251433    0.714026228751
 H   -1.954317981571    0.320625251433    0.846216228751
