8
0 1 
 C   -0.543658558205   -0.535817214175    0.037639426996
 C    0.543341441795    0.539182785825   -0.038360573004
 H   -1.520658558205   -0.088817214175   -0.136360573004
 H   -0.364658558205   -1.290817214175   -0.725360573004
 H   -0.528658558205   -1.010817214175    1.016639426996
 H    1.506341441795    0.064182785825    0.139639426996
 H    0.358643341795    1.283722785825    0.750019426996
 H    0.552766741795    1.002472785825   -1.035990573004
