16
0 1 
 C    2.511673440468   -1.475756217733   -0.353888189192
 C   -0.052326559532    1.340243782267   -0.280888189192
 C    1.135673440468    0.634243782267   -0.467888189192
 C   -1.182326559532    0.681243782267    0.178111810808
 C    1.210673440468   -0.730756217733   -0.187888189192
 C   -1.128326559532   -0.685756217733    0.457111810808
 C    0.072673440468   -1.383756217733    0.283111810808
 O   -2.324326559532    1.392243782267    0.343111810808
 H   -0.091326559532    2.399243782267   -0.483888189192
 H    2.020673440468    1.155243782267   -0.805888189192
 H   -2.192326559532    2.328243782267    0.188111810808
 H   -2.012326559532   -1.191756217733    0.813111810808
 H    2.987673440468   -1.172756217733   -1.281888189192
 H    2.289673440468   -2.539756217733   -0.448888189192
 H    0.114673440468   -2.439756217733    0.511111810808
 H    3.198703440468   -1.342068217733    0.494711810808
