11
0 1 
 C   -0.468451914867    0.010837532197    0.290663706476
 C    0.657548085133    1.012837532197    0.532663706476
 C   -0.211451914867   -1.025162467803   -0.806336293524
 H   -0.683451914867   -0.505162467803    1.226663706476
 H   -1.358451914867    0.566837532197    0.008663706476
 H    0.953548085133    1.465837532197   -0.414336293524
 H    0.751548085133   -1.500162467803   -0.628336293524
 H    1.530934085133    0.528127532197    0.993363706476
 H    0.266696085133    1.821797532197    1.167353706476
 H   -0.992609874867   -1.797692467803   -0.751716293524
 H   -0.202026614867   -0.561872467803   -1.803966293524
