14
0 1 
 C   -0.014736486046   -0.225033068095    0.325374213314
 C    1.433263513954    0.240966931905    0.064374213314
 C   -1.001736486046    0.926966931905    0.619374213314
 C   -0.429736486046   -0.970033068095   -0.955625786686
 H    0.005263513954   -0.907033068095    1.174374213314
 H    1.442263513954    0.906966931905   -0.798625786686
 H    2.048263513954   -0.631033068095   -0.157625786686
 H   -1.036736486046    1.609966931905   -0.229625786686
 H   -2.000736486046    0.523966931905    0.795374213314
 H   -0.678736486046    1.473966931905    1.506374213314
 H    0.239263513954   -1.816033068095   -1.122625786686
 H   -1.447736486046   -1.335033068095   -0.855625786686
 H   -0.372736486046   -0.294033068095   -1.809625786686
 H    1.955773513954    0.791356931905    0.860654213314
