11
0 1 
 C   -0.135878016651    0.395545336266   -0.415405181048
 C   -0.849878016651    0.297545336266    0.917594818952
 C    0.987121983349   -0.648454663734   -0.520405181048
 H   -0.856878016651    0.169545336266   -1.201405181048
 H    0.228121983349    1.406545336266   -0.573405181048
 H   -0.993878016651   -0.752454663734    1.181594818952
 H   -1.841878016651    0.741545336266    0.817594818952
 H    1.817121983349   -0.623454663734    0.155594818952
 H    0.520121983349   -1.626454663734   -0.367405181048
 H   -0.319668016651    0.814090336266    1.731261618952
 H    1.430671983349   -0.660835663734   -1.526941181048
