11
0 1 
 C   -0.476394379289   -0.146968025419    0.233045711794
 C    0.851605620711   -0.804968025419    0.608045711794
 C   -0.402394379289    0.940031974581   -0.831954288206
 H   -1.163394379289   -0.923968025419   -0.104954288206
 H   -0.900394379289    0.292031974581    1.138045711794
 H    1.582605620711   -0.028968025419    0.824045711794
 H    0.030605620711    0.545031974581   -1.747954288206
 H    1.232435620711   -1.422204025419   -0.218994288206
 H    0.752595620711   -1.380264025419    1.540375711794
 H   -1.429704379289    1.274774974581   -1.038284288206
 H    0.218915620711    1.785304974581   -0.501074288206
