11
0 1 
 C    0.240084203054    0.510570381095    0.271601543380
 C    0.780084203054   -0.895429618905    0.365601543380
 C   -1.005915796946    0.423570381095   -0.613398456620
 H    0.996084203054    1.148570381095   -0.191398456620
 H   -0.005915796946    0.900570381095    1.260601543380
 H    1.858084203054   -0.868429618905    0.440601543380
 H    0.338084203054   -1.408429618905    1.221601543380
 H   -1.909915796946    0.546570381095   -0.014398456620
 H    0.464084203054   -1.383059618905   -0.568398456620
 H   -0.957745796946   -0.591019618905   -1.035638456620
 H   -0.952462796946    1.194300381095   -1.396408456620
