9
0 1 
 C    0.394323645515   -0.038711071083    0.421278614776
 C    0.717323645515   -0.027711071083   -1.069721385224
 O   -1.008676354485    0.011288928917    0.618278614776
 H    0.775323645515   -0.962711071083    0.855278614776
 H    0.883323645515    0.800288928917    0.919278614776
 H    1.709323645515   -0.447711071083   -1.193721385224
 H   -1.324676354485    0.896288928917    0.388278614776
 H    0.724843645515    1.000738928917   -1.459900385224
 H    0.004093645515   -0.675181071083   -1.600847385224
