11
0 1 
 C    0.348528485102   -0.163036936563    0.520255076118
 C   -0.807471514898   -0.924036936563   -0.109744923882
 C    0.487528485102    1.075963063437   -0.362744923882
 H    1.250528485102   -0.768036936563    0.454255076118
 H    0.140528485102    0.099963063437    1.558255076118
 H   -0.770471514898   -1.985036936563    0.137255076118
 H   -1.752471514898   -0.490036936563    0.220255076118
 H   -0.198471514898    1.849963063437   -0.014744923882
 H   -0.683831514898   -0.756026936563   -1.189784923882
 H    0.154488485102    0.724833063437   -1.350567923882
 H    1.519338485102    1.456673063437   -0.383654923882
