11
0 1 
 C   -0.070096728748   -0.236233999451    0.626671639889
 C   -1.129096728748   -0.023233999451   -0.448328360111
 C    1.192903271252    0.243766000549   -0.121328360111
 H    0.014903271252   -1.297233999451    0.869671639889
 H   -0.268096728748    0.355766000549    1.519671639889
 H   -1.974096728748   -0.694233999451   -0.281328360111
 H   -1.461096728748    1.014766000549   -0.451328360111
 H    2.105903271252   -0.117233999451    0.354671639889
 H    1.204903271252    1.333766000549   -0.161328360111
 H   -0.611636728748   -0.248677999451   -1.392471360111
 H    1.064113271252   -0.159956999451   -1.136425360111
