8
0 1 
 C    0.094871445317   -0.004397598203    0.756010056756
 C   -0.099128554683   -0.001397598203   -0.756989943244
 H    1.124871445317    0.253602401797    0.999010056756
 H   -0.560128554683    0.740602401797    1.206010056756
 H   -0.126128554683   -0.991397598203    1.161010056756
 H    0.129871445317    1.010602401797   -1.078989943244
 H   -1.131478554683   -0.256105598203   -1.038733943244
 H    0.613681445317   -0.688301598203   -1.236638943244
