7
-1 1 
 C   -0.783776810044   -0.076486810625   -1.218031715546
 C    0.047223189956    0.022513189375    0.061968284454
 O   -0.415776810044    0.610513189375    1.059968284454
 O    1.153223189956   -0.546486810625    0.098968284454
 H   -1.335776810044   -1.018486810625   -1.223031715546
 H   -0.095776810044   -0.102486810625   -2.065031715546
 H   -1.502237810044    0.747483189375   -1.340051715546
