6
0 1 
 C   -0.068388552885    0.645608169760   -0.350656775766
 O    0.015611447115   -0.620391830240    0.317343224234
 H    0.895611447115   -0.692391830240    0.733343224234
 H    0.224611447115    1.447608169760    0.325343224234
 H    0.559951447115    0.625498169760   -1.253306775766
 H   -1.113648552885    0.778208169760   -0.666636775766
