13
1 1 
 C   -1.572455081693   -1.030991173571   -0.549794590045
 C    0.382544918307    0.258008826429    0.142205409955
 N   -0.646455081693    0.100008826429   -0.677794590045
 N    0.684544918307   -0.637991173571    1.057205409955
 N    1.120544918307    1.317008826429   -0.015794590045
 H   -0.832455081693    0.847008826429   -1.348794590045
 H   -2.074455081693   -0.966991173571    0.419205409955
 H   -1.032455081693   -1.977991173571   -0.601794590045
 H    0.094544918307   -1.441991173571    1.192205409955
 H    1.468544918307   -0.490991173571    1.674205409955
 H    0.865544918307    1.949008826429   -0.767794590045
 H    1.922544918307    1.489008826429    0.569205409955
 H   -2.342235081693   -1.027360173571   -1.335554590045
