18
0 1 
 C    1.616923396690    0.297643809618    1.223002490785
 C    1.142923396690    0.678643809618    2.624002490785
 C    0.502923396690    0.050643809618    0.227002490785
 C    0.022923396690    1.089643809618   -0.579997509215
 C   -0.038076603310   -1.233356190382    0.075002490785
 C   -0.991076603310    0.876643809618   -1.501997509215
 C   -1.034076603310   -1.472356190382   -0.859997509215
 C   -1.514076603310   -0.409356190382   -1.672997509215
 H    2.250923396690    1.092643809618    0.831002490785
 H    2.224923396690   -0.605356190382    1.293002490785
 H    0.463923396690   -0.096356190382    2.972002490785
 H    0.435923396690    2.080643809618   -0.477997509215
 H    0.332923396690   -2.044356190382    0.677002490785
 H   -1.345076603310    1.688643809618   -2.087997509215
 H   -1.395076603310   -2.478356190382   -1.010997509215
 H   -2.158076603310   -0.576356190382   -2.511997509215
 H    0.613393396690    1.642791109618    2.619482490785
 H    2.048403396690    0.746899809618    3.244842490785
