15
0 1 
 C   -0.699941621657    1.197163135874   -2.015995216082
 C   -1.221941621657   -0.189836864126    0.020004783918
 C   -0.274941621657    0.425163135874   -0.802995216082
 C   -0.829941621657   -0.834836864126    1.203004783918
 C    0.533058378343   -0.867836864126    1.567004783918
 C    1.090058378343    0.377163135874   -0.450995216082
 C    1.490058378343   -0.262836864126    0.731004783918
 H   -2.268941621657   -0.148836864126   -0.239995216082
 H   -1.567941621657   -1.284836864126    1.849004783918
 H   -1.786941621657    1.182163135874   -2.115995216082
 H   -0.275941621657    0.704163135874   -2.884995216082
 H    0.842058378343   -1.361836864126    2.478004783918
 H    1.839058378343    0.827163135874   -1.084995216082
 H    2.537058378343   -0.300836864126    0.995004783918
 H   -0.347261621657    2.238633135874   -1.985046216082
