12
0 1 
 C   -0.254778810911   -0.252687759790   -0.130902240620
 C    1.066221189089   -0.459687759790   -0.886902240620
 C   -0.060778810911   -0.493687759790    1.353097759380
 O   -0.752778810911    1.061312240210   -0.342902240620
 H   -0.999778810911   -0.959687759790   -0.503902240620
 H    1.841221189089    0.134312240210   -0.404902240620
 H    0.744221189089    0.136312240210    1.733097759380
 H   -0.982778810911   -0.254687759790    1.885097759380
 H    0.176221189089   -1.541687759790    1.536097759380
 H   -0.062778810911    1.689312240210    0.000097759380
 H    0.952584189089   -0.162715259790   -1.939942540620
 H    1.340212189089   -1.524564759790   -0.855816240620
