11
0 1 
 C    0.399756382861    0.215534978361    0.336586146220
 C    0.673756382861   -0.878465021639   -0.700413853780
 C   -1.051243617139    0.667534978361    0.386586146220
 H    0.735756382861   -0.109465021639    1.308586146220
 H    0.993756382861    1.093534978361    0.093586146220
 H    0.317756382861   -0.528465021639   -1.668413853780
 H   -1.710243617139   -0.125465021639    0.737586146220
 H   -1.140243617139    1.501534978361    1.077586146220
 H   -1.345243617139    0.997534978361   -0.606413853780
 H    1.753453382861   -1.081085021639   -0.756973853780
 H    0.129853382861   -1.802955021639   -0.456523853780
