12
0 1 
 C   -1.049388298952   -0.110416167757    0.519678703176
 C   -0.537388298952   -1.118416167757    1.537678703176
 C    1.436611701048    0.959583832243   -0.171321296824
 S    0.032611701048    0.108583832243   -0.913321296824
 H   -2.028388298952   -0.434416167757    0.166678703176
 H   -1.178388298952    0.853583832243    1.013678703176
 H   -1.253388298952   -1.182416167757    2.358678703176
 H    0.406611701048   -0.753416167757    1.940678703176
 H    1.891611701048    0.333583832243    0.596678703176
 H    2.179611701048    1.164583832243   -0.943321296824
 H    1.108611701048    1.902583832243    0.263678703176
 H   -0.372862298952   -2.122886167757    1.120590703176
