8
0 1 
 C   -0.083225355021    0.720838770915    0.227770686126
 C    0.084774644979   -0.720161229085   -0.232229313874
 H   -1.137225355021    0.992838770915    0.216770686126
 H    0.302774644979    0.831838770915    1.240770686126
 H    0.462774644979    1.390838770915   -0.440229313874
 H   -0.431225355021   -1.373161229085    0.467770686126
 H   -0.366375355021   -0.860341229085   -1.225609313874
 H    1.150829644979   -0.990081229085   -0.206385313874
