11
0 1 
 C    0.434050364039   -0.188518549293   -0.317501269383
 C   -0.904949635961   -0.938518549293   -0.163501269383
 C    0.494050364039    1.112481450707    0.463498730617
 H    1.234050364039   -0.842518549293    0.023498730617
 H    0.628050364039    0.039481450707   -1.364501269383
 H   -1.721949635961   -0.267518549293   -0.438501269383
 H    0.517050364039    0.922481450707    1.534498730617
 H    1.406050364039    1.646481450707    0.197498730617
 H   -0.363949635961    1.738481450707    0.214498730617
 H   -0.920660635961   -1.807598549293   -0.837629269383
 H   -1.054297635961   -1.255978549293    0.879051730617
