18
0 1 
 C    0.947557666502   -0.571793247750   -1.051062703457
 C    2.348557666502   -0.045793247750   -0.842062703457
 C    0.967557666502    1.186206752250    0.666937296543
 C   -1.777442333498   -1.217793247750   -0.381062703457
 C   -1.085442333498   -0.088793247750    0.354937296543
 O   -1.664442333498    0.536206752250    1.250937296543
 N    0.172557666502    0.158206752250   -0.032062703457
 H    0.590557666502   -0.312793247750   -2.050062703457
 H    0.919557666502   -1.648793247750   -0.887062703457
 H    2.886557666502    0.033206752250   -1.787062703457
 H    2.879557666502   -0.729793247750   -0.178062703457
 H    1.214557666502    0.836206752250    1.667937296543
 H   -1.199442333498   -2.133793247750   -0.255062703457
 H   -1.822442333498   -0.970793247750   -1.442062703457
 H    2.264997666502    0.931243752250   -0.343652703457
 H    1.885987666502    1.259420752250    0.066007296543
 H    0.513097666502    2.187330752250    0.701787296543
 H   -2.793602333498   -1.372775247750    0.010587296543
