16
0 1 
 C    2.515937527781    0.345339875629    1.458170760902
 C    0.879937527781    1.027339875629   -0.326829239098
 C    1.210937527781    0.178339875629    0.731170760902
 C   -0.309062472219    0.852339875629   -1.034829239098
 C   -1.175062472219   -0.181660124371   -0.684829239098
 C    0.335937527781   -0.853660124371    1.074170760902
 C   -0.853062472219   -1.041660124371    0.367170760902
 O   -2.339062472219   -0.340660124371   -1.375829239098
 H    1.552937527781    1.830339875629   -0.599829239098
 H   -0.560062472219    1.520339875629   -1.846829239098
 H    2.486937527781   -0.213660124371    2.394170760902
 H    2.634937527781    1.402339875629    1.702170760902
 H    0.583937527781   -1.517660124371    1.892170760902
 H   -2.446062472219    0.329339875629   -2.060829239098
 H   -1.530062472219   -1.841660124371    0.632170760902
 H    3.376067527781    0.011003875629    0.859470760902
