9
0 1 
 C   -0.082306544269    0.621803041690    1.309505699921
 C    0.049693455731   -0.056196958310   -0.038494300079
 O    0.946693455731   -0.868196958310   -0.269494300079
 N   -0.850306544269    0.280803041690   -0.949494300079
 H   -0.832306544269   -0.171196958310   -1.850494300079
 H   -1.571306544269    0.953803041690   -0.716494300079
 H   -0.821306544269    0.068803041690    1.890505699921
 H   -0.463306544269    1.628803041690    1.147505699921
 H    0.866289455731    0.662553041690    1.864938699921
