8
0 1 
 C    0.063406296053    0.230536538376   -0.724870081601
 C   -0.061593703947   -0.228463461624    0.727129918399
 H    1.004406296053    0.740536538376   -0.894870081601
 H    0.005406296053   -0.632463461624   -1.390870081601
 H   -0.756593703947    0.898536538376   -0.980870081601
 H   -1.050593703947   -0.653463461624    0.882129918399
 H    0.086186296053    0.622778538376    1.407972918399
 H    0.689606296053   -1.000608461624    0.949599918399
