8
0 1 
 C   -0.163122427113    0.071552537755   -0.737631740206
 C    0.162877572887   -0.069447462245    0.739368259794
 H    0.590877572887   -0.426447462245   -1.346631740206
 H   -1.130122427113   -0.388447462245   -0.945631740206
 H   -0.205122427113    1.125552537755   -1.013631740206
 H    0.215877572887   -1.124447462245    0.982368259794
 H    1.142567572887    0.389692537755    0.937876259794
 H   -0.611162427113    0.399032537755    1.364974259794
