7
-1 1 
 C    0.257742662817    0.094679214268   -1.383455742302
 C   -0.014257337183   -0.013320785732    0.078544257698
 O   -1.105257337183    0.416679214268    0.486544257698
 O    0.859742662817   -0.503320785732    0.822544257698
 H    1.284742662817   -0.213320785732   -1.592455742302
 H    0.153742662817    1.135679214268   -1.672455742302
 H   -0.441127337183   -0.516014685732   -1.973915742302
