15
0 1 
 C    2.122277046334   -1.185265337093    0.319460835601
 C   -0.464722953666    1.597734662907    0.132460835601
 C   -1.601722953666    0.898734662907   -0.237539164399
 C    0.736277046334    0.922734662907    0.308460835601
 C    0.814277046334   -0.456265337093    0.109460835601
 C   -1.539722953666   -0.476265337093   -0.423539164399
 C   -0.335722953666   -1.151265337093   -0.244539164399
 H   -0.505722953666    2.670734662907    0.267460835601
 H   -2.537722953666    1.422734662907   -0.385539164399
 H    1.615277046334    1.483734662907    0.589460835601
 H   -2.428722953666   -1.023265337093   -0.709539164399
 H    2.836277046334   -0.835265337093   -0.426539164399
 H    1.976277046334   -2.254265337093    0.157460835601
 H   -0.299722953666   -2.223265337093   -0.388539164399
 H    2.547720046334   -1.028865337093    1.321730835601
