16
0 1 
 C   -0.738166981044    2.669260282654    1.030245011250
 C    0.103833018956    1.146260282654   -0.780754988750
 C   -0.377166981044    1.291260282654    0.504245011250
 C    0.449833018956   -0.100739717346   -1.270754988750
 C   -0.460166981044    0.130260282654    1.302245011250
 C    0.349833018956   -1.243739717346   -0.506754988750
 C   -0.103166981044   -1.106739717346    0.791245011250
 O    0.714833018956   -2.459739717346   -0.995754988750
 H    0.162833018956    2.004260282654   -1.426754988750
 H    0.782833018956   -0.197739717346   -2.292754988750
 H   -1.824166981044    2.772260282654    1.009245011250
 H   -0.315166981044    3.430260282654    0.374245011250
 H   -0.825166981044    0.182260282654    2.318245011250
 H   -0.187166981044   -1.981739717346    1.421245011250
 H    0.472833018956   -3.176739717346   -0.394754988750
 H   -0.381946981044    2.834727282654    2.057725011250
