15
0 1 
 C    0.055467518348   -2.088176239767    1.233663207969
 C    0.408467518348    0.370823760233    1.099663207969
 C    0.038467518348   -0.816176239767    0.464663207969
 C    0.357467518348    1.582823760233    0.408663207969
 C   -0.060532481652    1.600823760233   -0.926336792031
 C   -0.379532481652   -0.801176239767   -0.868336792031
 C   -0.429532481652    0.411823760233   -1.567336792031
 H    0.732467518348    0.345823760233    2.131663207969
 H    0.636467518348    2.504823760233    0.901663207969
 H    1.014467518348   -2.137176239767    1.741663207969
 H   -0.006532481652   -2.899176239767    0.507663207969
 H   -0.097532481652    2.536823760233   -1.462336792031
 H   -0.667532481652   -1.723176239767   -1.358336792031
 H   -0.753532481652    0.429823760233   -2.599336792031
 H   -0.742450481652   -2.162666239767    1.987173207969
