13
1 1 
 C   -0.937091760204    1.680303464745    0.532658257970
 C    0.216908239796   -0.416696535255   -0.133341742030
 N    0.881908239796   -0.465696535255    1.006658257970
 N   -0.640091760204    0.567303464745   -0.380341742030
 N    0.410908239796   -1.357696535255   -1.034341742030
 H    0.779908239796    0.274303464745    1.672658257970
 H    1.695908239796   -1.078696535255    1.089658257970
 H   -1.036091760204    0.615303464745   -1.321341742030
 H   -0.058091760204   -1.293696535255   -1.925341742030
 H    1.098908239796   -2.074696535255   -0.870341742030
 H   -1.386091760204    2.491303464745   -0.035341742030
 H   -0.006091760204    2.088303464745    0.931658257970
 H   -1.582441760204    1.384873464745    1.373044257970
