19
0 1 
 C   -2.341551361071   -1.269611866752    1.390879135070
 C    0.174448638929    0.685388133248   -0.640120864930
 C   -0.092551361071   -0.289611866752    0.350879135070
 C   -1.527551361071   -0.300611866752    0.559879135070
 C   -2.034551361071    0.661388133248   -0.243120864930
 C    1.452448638929    0.951388133248   -1.101120864930
 C    2.504448638929    0.188388133248   -0.602120864930
 C    0.992448638929   -1.065611866752    0.833879135070
 C    2.294448638929   -0.799611866752    0.376879135070
 N   -1.013551361071    1.274388133248   -0.945120864930
 H   -1.182551361071    1.887388133248   -1.750120864930
 H    1.624448638929    1.722388133248   -1.833120864930
 H   -3.090551361071    0.877388133248   -0.365120864930
 H    3.509448638929    0.374388133248   -0.958120864930
 H    0.818448638929   -1.853611866752    1.553879135070
 H   -2.110551361071   -2.274611866752    1.033879135070
 H   -3.400551361071   -1.086611866752    1.203879135070
 H    3.131448638929   -1.377611866752    0.748879135070
 H   -2.148911361071   -1.229211866752    2.473129135070
