9
0 1 
 C    0.026603497961   -0.778057373698    1.221850405958
 C    0.047603497961    0.019942626302   -0.061149594042
 O    1.059603497961    0.067942626302   -0.760149594042
 N   -1.070396502039    0.649942626302   -0.387149594042
 H   -0.721396502039   -0.378057373698    1.908850405958
 H    1.002603497961   -0.632057373698    1.689850405958
 H   -1.080396502039    1.213942626302   -1.223149594042
 H   -1.894396502039    0.566942626302    0.195850405958
 H   -0.134196502039   -1.852857373698    1.051650405958
