8
0 1 
 C   -0.174523653386    0.013054124771    0.732835997513
 C    0.171476346614   -0.014945875229   -0.736164002487
 H   -1.045523653386   -0.606945875229    0.931835997513
 H    0.658476346614   -0.387945875229    1.309835997513
 H   -0.372523653386    1.035054124771    1.059835997513
 H    0.310476346614   -1.043945875229   -1.054164002487
 H   -0.622476973386    0.487674124771   -1.308014002487
 H    1.107855346614    0.538634124771   -0.899704002487
