19
0 1 
 C   -2.043481483173   -1.856839710587    1.161115266175
 C   -0.421481483173   -0.184839710587   -0.082884733825
 C   -0.747481483173   -1.113839710587    0.977115266175
 C    0.871518516827    0.333160289413    0.189115266175
 C    0.311518516827   -1.124839710587    1.823115266175
 C   -1.077481483173    0.273160289413   -1.243884733825
 C   -0.432481483173    1.213160289413   -2.072884733825
 C    0.848518516827    1.705160289413   -1.771884733825
 C    1.509518516827    1.266160289413   -0.640884733825
 N    1.281518516827   -0.257839710587    1.362115266175
 H   -2.066481483173   -0.082839710587   -1.519884733825
 H   -0.945481483173    1.554160289413   -2.960884733825
 H    1.319518516827    2.427160289413   -2.423884733825
 H   -1.813481483173   -2.788839710587    1.673115266175
 H   -2.424481483173   -2.087839710587    0.161115266175
 H    0.294518516827   -1.755839710587    2.705115266175
 H    2.165518516827   -0.072839710587    1.822115266175
 H    2.497518516827    1.621160289413   -0.376884733825
 H   -2.767081483173   -1.309519710587    1.783075266175
