8
0 1 
 C    0.446659658372    0.383490592028   -0.488302891880
 C   -0.446340341628   -0.380509407972    0.491697108120
 H    1.140659658372    1.018490592028    0.063697108120
 H    1.014659658372   -0.327509407972   -1.089302891880
 H   -0.154340341628    0.997490592028   -1.159302891880
 H   -1.208340341628   -0.901509407972   -0.089302891880
 H   -0.939960341628    0.307414592028    1.193908108120
 H    0.143519658372   -1.129873407972    1.039889108120
