8
0 1 
 C   -0.207718020886    0.623260193328    0.399513948526
 C    0.207281979114   -0.626739806672   -0.394486051474
 H   -0.224718020886    0.409260193328    1.469513948526
 H    0.506281979114    1.419260193328    0.195513948526
 H   -1.198718020886    0.951260193328    0.081513948526
 H    0.250281979114   -0.354739806672   -1.451486051474
 H   -0.539278020886   -1.423632806672   -0.261796051474
 H    1.211341979114   -0.959976806672   -0.093126051474
