11
0 1 
 C    0.246350413648   -0.427833895368   -0.325425039654
 C    0.246350413648   -0.410833895368    1.198574960346
 C   -0.472649586352    0.805166104632   -0.897425039654
 H    1.274350413648   -0.441833895368   -0.689425039654
 H   -0.271649586352   -1.316833895368   -0.685425039654
 H   -0.780649586352   -0.287833895368    1.546574960346
 H    0.817350413648    0.454166104632    1.537574960346
 H   -1.501649586352    0.817166104632   -0.531425039654
 H    0.035350413648    1.709166104632   -0.553425039654
 H    0.665140413648   -1.316423895368    1.661744960346
 H   -0.476989586352    0.781326104632   -1.997155039654
