8
0 1 
 C   -0.660566306145    0.363788793820    0.215307135370
 C    0.661433693855   -0.363211206180   -0.215692864630
 H   -0.782566306145    1.298788793820   -0.334692864630
 H   -1.521566306145   -0.271211206180    0.017307135370
 H   -0.627566306145    0.589788793820    1.271307135370
 H    0.614433693855   -0.601211206180   -1.282692864630
 H    1.539143693855    0.272028793820   -0.025692864630
 H    0.767793693855   -1.295061206180    0.359057135370
