11
0 1 
 C   -0.246062375420    0.490896755759    0.191143584171
 C   -0.867062375420   -0.892103244241    0.416143584171
 C    1.094937624580    0.424896755759   -0.591856415829
 H   -0.954062375420    1.105896755759   -0.366856415829
 H   -0.076062375420    0.973896755759    1.152143584171
 H   -0.096062375420   -1.547103244241    0.814143584171
 H    0.898937624580   -0.003103244241   -1.573856415829
 H    1.470937624580    1.435896755759   -0.740856415829
 H   -1.248782375420   -1.294853244241   -0.533636415829
 H   -1.666682375420   -0.795573244241    1.165333584171
 H    1.888327624580   -0.157133244241   -0.100146415829
