11
1 1 
 C   -0.336126902267   -0.517096165427    0.292102815629
 C   -0.576126902267   -0.065096165427   -1.061897184371
 N    0.779873097733    0.461903834573    0.704102815629
 H   -1.227126902267   -0.400096165427    0.917102815629
 H    0.003873097733   -1.559096165427    0.289102815629
 H    0.295873097733   -0.292096165427   -1.682897184371
 H   -0.654126902267    1.026903834573   -1.038897184371
 H    0.361873097733    1.356903834573    0.970102815629
 H    1.248873097733    0.133903834573    1.540102815629
 H    1.485873097733    0.602903834573   -0.008897184371
 H   -1.488891902267   -0.355116165427   -1.602961184371
