11
0 1 
 C    0.393201781109   -0.374098586621    0.165597543322
 C   -0.687798218891   -0.710098586621   -0.851402456678
 C    0.324201781109    1.064901413379    0.698597543322
 H    0.234201781109   -1.068098586621    0.989597543322
 H    1.374201781109   -0.549098586621   -0.274402456678
 H   -1.663798218891   -0.572098586621   -0.388402456678
 H    0.372201781109    1.766901413379   -0.135402456678
 H   -0.584888218891   -1.756728586621   -1.173852456678
 H   -0.652126218891   -0.065098586621   -1.741742456678
 H   -0.627010218891    1.198551413379    1.234627543322
 H    1.194711781109    1.275421413379    1.337257543322
