8
0 1 
 C    0.012905657826    0.710283851701   -0.270091764276
 C   -0.017094342174   -0.711716148299    0.270908235724
 H   -1.004094342174    1.081283851701   -0.404091764276
 H    0.541905657826    1.356283851701    0.430908235724
 H    0.533905657826    0.732283851701   -1.227091764276
 H    1.011905657826   -1.046716148299    0.382908235724
 H   -0.532160342174   -1.363271148299   -0.450328764276
 H   -0.501588342174   -0.742810148299    1.257974235724
