11
1 1 
 C    0.594037766960   -0.038652042037   -0.031639494775
 C   -0.270962233040   -1.103652042037   -0.685639494775
 N   -0.250962233040    1.007347957963    0.631360505225
 H    1.229037766960   -0.526652042037    0.715360505225
 H    1.244037766960    0.395347957963   -0.790639494775
 H   -0.928962233040   -0.624652042037   -1.412639494775
 H   -0.886962233039   -1.587652042037    0.075360505225
 H   -0.967962233040    0.597347957963    1.217360505225
 H    0.311037766960    1.611347957963    1.219360505225
 H   -0.691962233039    1.609347957963   -0.060639494775
 H    0.331887766960   -1.869662042037   -1.195349494775
