8
0 1 
 C   -0.448186491712   -0.281996645833    0.553370880855
 C    0.447813508288    0.282003354167   -0.556629119145
 H   -0.976186491712   -1.169996645833    0.203370880855
 H    0.156813508288   -0.547996645833    1.419370880855
 H   -1.179186491712    0.469003354167    0.859370880855
 H    1.026813508288    1.104003354167   -0.143629119145
 H   -0.162466491712    0.645603354167   -1.396479119145
 H    1.138653508288   -0.500696645833   -0.903209119145
