11
0 1 
 C   -0.443266929395    0.318730665614    0.192185357326
 C    0.661733070605    0.840730665614   -0.731814642674
 C   -0.244266929395   -1.145269334386    0.557185357326
 H   -0.483266929395    0.924730665614    1.101185357326
 H   -1.406266929395    0.440730665614   -0.303814642674
 H    0.234733070605    1.661730665614   -1.310814642674
 H    0.973733070605    0.063730665614   -1.430814642674
 H   -0.161266929395   -1.737269334386   -0.360814642674
 H    0.697733070605   -1.239269334386    1.110185357326
 H    1.531983070605    1.230967665614   -0.183744642674
 H   -1.080175929395   -1.514333334386    1.169595357326
