18
0 1 
 C   -0.990656115432    0.345799203650   -1.754549650033
 C   -2.091656115432    1.387799203650   -1.523549650033
 C   -0.193656115432    0.000799203650   -0.520549650033
 C    0.932343884568    0.755799203650   -0.191549650033
 C   -0.554656115432   -1.082200796350    0.292450349967
 C    1.710343884568    0.432799203650    0.918450349967
 C    0.218343884568   -1.417200796350    1.403450349967
 C    1.354343884568   -0.657200796350    1.720450349967
 H   -1.437656115432   -0.572200796350   -2.135549650033
 H   -0.306656115432    0.705799203650   -2.521549650033
 H   -2.715656115432    1.438799203650   -2.414549650033
 H    1.218343884568    1.591799203650   -0.813549650033
 H   -1.425656115432   -1.674200796350    0.052450349967
 H    2.588343884568    1.016799203650    1.157450349967
 H   -0.058656115432   -2.258200796350    2.022450349967
 H    1.951343884568   -0.915200796350    2.581450349967
 H   -1.659171115432    2.382363203650   -1.339709650033
 H   -2.735745115432    1.065754203650   -0.692019650033
