9
0 1 
 C    0.793461017514   -0.250510465748   -1.184522184292
 C   -0.066538982486    0.055489534252    0.023477815708
 O   -0.900538982486    0.988489534252    0.049477815708
 N    0.161461017514   -0.738510465748    1.055477815708
 H    0.162461017514   -0.187510465748   -2.072522184292
 H    1.194461017514   -1.264510465748   -1.135522184292
 H   -0.406538982486   -0.627510465748    1.879477815708
 H    0.826461017514   -1.497510465748    0.987477815708
 H    1.616631017514    0.472199534252   -1.284982184292
