16
0 1 
 C   -0.211933251186    0.414234382464   -2.906643060049
 C   -0.088933251186    0.210234382464   -1.410643060049
 C    0.835066748814    0.923234382464   -0.643643060049
 C   -0.925933251186   -0.702765617536   -0.764643060049
 C    0.924066748814    0.722234382464    0.732356939951
 C   -0.835933251186   -0.918765617536    0.609356939951
 C    0.088066748814   -0.205765617536    1.355356939951
 O    0.163066748814   -0.427765617536    2.697356939951
 H   -1.137933251186    0.961234382464   -3.090643060049
 H   -0.312933251186   -0.564765617536   -3.372643060049
 H    1.481066748814    1.664234382464   -1.080643060049
 H   -1.665933251186   -1.246765617536   -1.335643060049
 H    1.639066748814    1.286234382464    1.314356939951
 H   -1.485933251186   -1.628765617536    1.099356939951
 H    0.848066748814    0.100234382464    3.119356939951
 H    0.612856748814    0.946863382464   -3.402663060049
