8
0 1 
 C    0.257447977798   -0.588464539274    0.408330279126
 C   -0.251552022202    0.591535460726   -0.408669720874
 H    0.285447977798   -0.350464539274    1.466330279126
 H   -0.435552022202   -1.424464539274    0.306330279126
 H    1.237447977798   -0.918464539274    0.060330279126
 H   -0.996552022202    1.139535460726    0.165330279126
 H    0.574297977798    1.273037460726   -0.660729720874
 H   -0.735292022202    0.244255760726   -1.333549720874
