8
0 1 
 C   -0.396537717145    0.177532352843   -0.632383258669
 C    0.399462282855   -0.172467647157    0.629616741331
 H    0.026462282855   -0.333467647157   -1.495383258669
 H   -1.429537717145   -0.150467647157   -0.516383258669
 H   -0.378537717145    1.254532352843   -0.791383258669
 H    0.441462282855   -1.254467647157    0.716616741331
 H    1.429444282855    0.212699852843    0.601646741331
 H   -0.124115717145    0.210866152843    1.517826741331
