8
0 1 
 C    0.045521672732   -0.710697118677    0.280636386196
 C   -0.050478327268    0.711302881323   -0.279363613804
 H   -0.949478327268   -1.135697118677    0.402636386196
 H    0.613521672732   -1.338697118677   -0.405363613804
 H    0.558521672732   -0.692697118677    1.242636386196
 H    0.959521672732    1.052302881323   -0.501363613804
 H   -0.493251327268    1.394092881323    0.460736386196
 H   -0.629817327268    0.713482881323   -1.214436613804
