6
0 1 
 C   -0.466603914363    0.354347546917    0.429943993738
 O    0.458396085637   -0.285652453083   -0.428056006262
 H    0.401396085637   -1.252652453083   -0.309056006262
 H   -0.061603914363    1.320347546917    0.736943993738
 H   -0.624603914363   -0.261652453083    1.315943993738
 H   -1.434493914363    0.508313546917   -0.069542006262
