12
0 1 
 C   -0.463315570438    0.888225981332   -0.493805394931
 C    0.386684429562    1.916225981332    0.248194605069
 C   -0.141315570438   -0.538774018668   -0.028805394931
 O   -0.742315570438   -1.054774018668    0.925194605069
 N    0.860684429562   -1.146774018668   -0.654805394931
 H   -1.522315570438    1.089225981332   -0.323805394931
 H   -0.254315570438    0.976225981332   -1.554805394931
 H    0.099684429562    1.895225981332    1.303194605069
 H    1.109684429562   -2.078774018668   -0.351805394931
 H    1.311684429562   -0.724774018668   -1.446805394931
 H    0.232814429562    2.934790981332   -0.137615394931
 H    1.440253429562    1.604748981332    0.193654605069
