8
0 1 
 C    0.530660765247   -0.483806464536    0.236307335684
 C   -0.530339234753    0.484193535464   -0.242692664316
 H    0.947660765247   -1.034806464536   -0.610692664316
 H    1.327660765247    0.062193535464    0.740307335684
 H    0.082660765247   -1.182806464536    0.940307335684
 H   -0.910339234753    1.011193535464    0.631307335684
 H   -1.351474234753   -0.089596464536   -0.697120664316
 H   -0.099997234753    1.229213535464   -0.928079664316
