9
0 1 
 C   -1.210254701338   -0.709961427943   -0.333938010866
 C    0.032745298662    0.079038572057   -0.011938010866
 O    0.392745298662    1.073038572057   -0.658938010866
 N    0.742745298662   -0.408961427943    0.947061989134
 H   -1.914254701338   -0.048961427943   -0.836938010866
 H   -1.668254701338   -1.027961427943    0.603061989134
 H    1.612745298662    0.046038572057    1.178061989134
 H    0.434745298662   -1.226961427943    1.449061989134
 H   -0.997694701338   -1.577511427943   -0.975948010866
