10
-1 1 
 C    0.381641568676   -0.892733084568    0.446001559776
 C    0.506641568676   -1.686733084568   -0.844998440224
 C   -0.135358431324    0.492266915432    0.199001559776
 O    0.596641568676    1.418266915432   -0.160998440224
 O   -1.329358431324    0.645266915432    0.399001559776
 H   -0.285358431324   -1.424733084568    1.130001559776
 H    1.358641568676   -0.832733084568    0.929001559776
 H   -0.459358431324   -1.671733084568   -1.353998440224
 H    0.778949568676   -2.723913084568   -0.599848440224
 H    1.270928568676   -1.244743084568   -1.501128440224
