12
0 1 
 C    0.295861115134   -0.188306774621   -0.099673900879
 C   -0.880138884866   -0.581306774621   -1.004673900879
 C    0.650861115134    1.281693225379   -0.279673900879
 O   -0.043138884866   -0.430306774621    1.261326099121
 H    1.166861115134   -0.793306774621   -0.346673900879
 H   -1.733138884866    0.022693225379   -0.702673900879
 H   -0.234138884866    1.871693225379   -0.502673900879
 H    1.061861115134    1.684693225379    0.636326099121
 H    1.378861115134    1.396693225379   -1.080673900879
 H    0.023861115134   -1.409306774621    1.374326099121
 H   -1.145748884866   -1.638466774621   -0.856773900879
 H   -0.626568884866   -0.402656774621   -2.060033900879
