8
0 1 
 C    0.526042749332   -0.174046606625    0.527758180828
 C   -0.522957250668    0.170953393375   -0.531241819172
 H    1.379042749332   -0.677046606625    0.067758180828
 H    0.864042749332    0.739953393375    1.018758180828
 H    0.088042749332   -0.832046606625    1.281758180828
 H   -1.336957250668    0.705953393375   -0.037241819172
 H   -0.931696250668   -0.739286606625   -0.994281819172
 H   -0.099213250668    0.839303393375   -1.295271819172
