16
0 1 
 C   -1.967835042427    1.379783287654    1.737491640232
 C    0.906164957573   -0.665216712346   -0.827508359768
 C   -0.315835042427   -0.245216712346   -1.314508359768
 C    1.231164957573   -0.399216712346    0.518491640232
 C   -1.232835042427    0.405783287654   -0.473508359768
 C    0.314164957573    0.278783287654    1.373491640232
 C   -0.945835042427    0.673783287654    0.876491640232
 O    1.838164957573   -1.267216712346   -1.637508359768
 H    1.422164957573   -1.545216712346   -2.455508359768
 H   -0.572835042427   -0.419216712346   -2.348508359768
 H    2.196164957573   -0.705216712346    0.896491640232
 H   -2.194835042427    0.682783287654   -0.861508359768
 H    0.584164957573    0.487783287654    2.399491640232
 H   -1.548835042427    1.584783287654    2.724491640232
 H   -2.810835042427    0.701783287654    1.856491640232
 H   -2.305376042427    2.315463287654    1.267841640232
