8
0 1 
 C    0.239907883069    0.477926756475   -0.537111094837
 C   -0.242092116931   -0.476073243525    0.541888905163
 H    1.327907883069    0.503926756475   -0.561111094837
 H   -0.126092116931    0.143926756475   -1.508111094837
 H   -0.132092116931    1.484926756475   -0.340111094837
 H    0.101907883069   -1.474073243525    0.279888905163
 H    0.196097883069   -0.186813243525    1.508487905163
 H   -1.341722116931   -0.493963243525    0.564067905163
