9
0 1 
 C   -0.277147635566   -0.490054560748   -0.104705522368
 C   -0.245147635566    0.697945439252   -1.069705522368
 O    0.494852364434   -0.245054560748    1.062294477632
 H   -1.309147635566   -0.704054560748    0.172294477632
 H    0.132852364434   -1.370054560748   -0.600705522368
 H    0.796852364434    0.926945439252   -1.279705522368
 H    0.193852364434    0.586945439252    1.454294477632
 H   -0.725477635566    1.572915439252   -0.607415522368
 H   -0.723717635566    0.401175439252   -2.014635522368
