16
0 1 
 C   -0.929972756077    1.200366485862    2.548885289714
 C   -1.193972756077   -0.381633514138    0.596885289714
 C   -0.384972756077    0.504366485862    1.298885289714
 C   -0.800972756077   -0.912633514138   -0.650114710286
 C    0.861027243923    0.830366485862    0.757885289714
 C    0.419027243923   -0.548633514138   -1.218114710286
 C    1.284027243923    0.309366485862   -0.497114710286
 O    0.652027243923   -0.958633514138   -2.509114710286
 H   -2.147972756077   -0.652633514138    1.028885289714
 H   -1.447972756077   -1.593633514138   -1.186114710286
 H   -0.101972756077    1.487366485862    3.195885289714
 H   -1.575972756077    0.506366485862    3.095885289714
 H    1.498027243923    1.490366485862    1.317885289714
 H    2.290027243923    0.485366485862   -0.863114710286
 H    1.452027243923   -0.590633514138   -2.893114710286
 H   -1.434112756077    2.156176485862    2.343255289714
