8
0 1 
 C    0.372958408323   -0.612139030242    0.257441693077
 C   -0.373041591677    0.611860969758   -0.259558306923
 H    1.276958408323   -0.783139030242   -0.320558306923
 H    0.653958408323   -0.444139030242    1.295441693077
 H   -0.273041591677   -1.487139030242    0.189441693077
 H    0.288958408323    1.472860969758   -0.216558306923
 H   -0.696061591677    0.427688969758   -1.294806306923
 H   -1.249781591677    0.817177969758    0.372241693077
