8
0 1 
 C   -0.268644229202   -0.273696331851    0.663895701694
 C    0.268355770798    0.265303668149   -0.667104298306
 H   -0.305644229202   -1.360696331851    0.648895701694
 H    0.370355770798    0.049303668149    1.482895701694
 H   -1.273644229202    0.115303668149    0.838895701694
 H    0.404355770798    1.338303668149   -0.537104298306
 H   -0.445574229202    0.120396668149   -1.491304298306
 H    1.253585770798   -0.162681331851   -0.904074298306
