8
0 1 
 C    0.078387087230    0.681693748206    0.344300181686
 C   -0.080612912770   -0.679306251794   -0.340699818314
 H   -0.715612912770    0.818693748206    1.077300181686
 H    1.046387087230    0.728693748206    0.844300181686
 H    0.022387087230    1.476693748206   -0.401699818314
 H    0.717387087230   -0.797306251794   -1.071699818314
 H   -1.049952912770   -0.737666251794   -0.857399818314
 H    0.005907087230   -1.517536251794    0.366330181686
