13
1 1 
 C    0.705370072399   -0.796984221027    1.662315580910
 C   -0.173629927601    0.202015778973   -0.407684419090
 N    0.640370072399    0.229015778973    0.628315580910
 N   -0.964629927601   -0.832984221027   -0.605684419090
 N   -0.174629927601    1.216015778973   -1.241684419090
 H    1.290370072399    1.016015778973    0.688315580910
 H   -0.923629927601   -1.621984221027    0.016315580910
 H   -1.573629927601   -0.859984221027   -1.407684419090
 H    0.466370072399    1.986015778973   -1.069684419090
 H   -0.794629927601    1.237015778973   -2.033684419090
 H    1.044370072399   -1.745984221027    1.240315580910
 H   -0.290629927601   -0.936984221027    2.090315580910
 H    1.381820072399   -0.493923221027    2.475065580910
