8
0 1 
 C   -0.050992956248    0.070134044025    0.756056757324
 C    0.051007043752   -0.067865955975   -0.760943242676
 H   -0.777992956248   -0.631865955975    1.153056757324
 H    0.922007043752   -0.137865955975    1.204056757324
 H   -0.348992956248    1.086134044025    1.018056757324
 H    0.424007043752   -1.065865955975   -0.983943242676
 H   -0.967882956248    0.046774044025   -1.159329242676
 H    0.748687043752    0.675684044025   -1.173715242676
