19
0 1 
 C   -1.867125155380   -0.308775475952    1.669842844741
 C   -2.075125155380    1.005224524048    2.403842844741
 C   -0.771125155380   -0.231775475952    0.659842844741
 C   -0.937125155380    0.553224524048   -0.504157155259
 C    0.418874844620   -0.951775475952    0.857842844741
 C    0.096874844620    0.661224524048   -1.456157155259
 C    1.438874844620   -0.871775475952   -0.103157155259
 C    1.284874844620   -0.060775475952   -1.239157155259
 O    2.297874844620    0.011224524048   -2.161157155259
 H   -1.646125155380   -1.087775475952    2.398842844741
 H   -2.778125155380   -0.590775475952    1.138842844741
 H   -2.235125155380    1.781224524048    1.653842844741
 H   -1.863125155380    1.093224524048   -0.663157155259
 H    0.547874844620   -1.541775475952    1.750842844741
 H   -0.029125155380    1.273224524048   -2.339157155259
 H    2.357874844620   -1.423775475952    0.027842844741
 H    2.091874844620    0.613224524048   -2.882157155259
 H   -1.183586155380    1.229034524048    3.008050844741
 H   -3.023975155380    0.919354524048    2.953670844741
