8
0 1 
 C   -0.136823644556   -0.743676674558   -0.065182718741
 C    0.130176355444    0.747323325442    0.061817281259
 H   -1.098823644556   -0.911676674558   -0.552182718741
 H    0.652176355444   -1.204676674558   -0.661182718741
 H   -0.150823644556   -1.198676674558    0.923817281259
 H    1.109176355444    0.848323325442    0.526817281259
 H   -0.620473644556    1.195993325442    0.729064281259
 H    0.187916355444    1.227293325442   -0.926261718741
