15
0 1 
 C   -0.646420376164    1.994836786747    1.256170406366
 C   -0.024420376164   -1.636163213253    0.340170406366
 C    0.471579623836   -1.520163213253   -0.959829593634
 C   -0.369420376164   -0.492163213253    1.060170406366
 C   -0.231420376164    0.771836786747    0.490170406366
 C    0.616579623836   -0.256163213253   -1.536829593634
 C    0.265579623836    0.884836786747   -0.810829593634
 H   -0.161420376164   -2.612163213253    0.783170406366
 H    0.740579623836   -2.409163213253   -1.508829593634
 H   -0.742420376164   -0.596163213253    2.067170406366
 H    0.993579623836   -0.150163213253   -2.542829593634
 H    0.083579623836    2.783836786747    1.063170406366
 H   -0.619420376164    1.774836786747    2.323170406366
 H    0.377579623836    1.857836786747   -1.266829593634
 H   -1.649100376164    2.365266786747    0.996510406366
