11
0 1 
 C    0.033881938340    0.226720637586    0.619344809092
 C   -0.804118061660   -0.915279362414    0.061344809092
 C    0.759881938340    0.717720637586   -0.625655190908
 H    0.737881938340   -0.161279362414    1.356344809092
 H   -0.586118061660    1.007720637586    1.058344809092
 H   -1.155118061660   -1.584279362414    0.846344809092
 H   -1.644118061660   -0.518279362414   -0.511655190908
 H    0.166881938340    1.445720637586   -1.178655190908
 H   -0.091198061660   -1.419751362414   -0.607424790908
 H    0.920651938340   -0.200839362414   -1.209095260908
 H    1.774421938340    1.083761637586   -0.409489490908
