8
0 1 
 C   -0.276964552196   -0.628808247991    0.356024370445
 C    0.276035447804    0.628191752009   -0.361975629555
 H    0.104035447804   -1.539808247991   -0.103975629555
 H    0.046035447804   -0.614808247991    1.396024370445
 H   -1.365964552196   -0.624808247991    0.326024370445
 H    1.358035447804    0.539191752009   -0.471975629555
 H    0.069035447804    1.491191752009    0.270024370445
 H   -0.200114552196    0.756381752009   -1.345261229555
