8
0 1 
 C   -0.245708310103    0.710285210607   -0.054686001015
 C    0.248291689897   -0.708714789393    0.046313998985
 H   -0.865708310103    0.821285210607   -0.938686001015
 H   -0.844708310103    0.957285210607    0.820313998985
 H    0.592291689897    1.403285210607   -0.115686001015
 H   -0.598708310103   -1.387714789393   -0.044686001015
 H    0.654291689897   -0.820714789393    1.050313998985
 H    1.031781689897   -0.992124789393   -0.671886001015
