8
0 1 
 C   -0.302512549397    0.600456156221   -0.366708719286
 C    0.307487450603   -0.595543843779    0.362291280714
 H   -0.255512549397    0.449456156221   -1.445708719286
 H   -1.343512549397    0.718456156221   -0.065708719286
 H    0.235487450603    1.508456156221   -0.096708719286
 H    0.354487450603   -0.360543843779    1.423291280714
 H    1.304417450603   -0.912780843779    0.022445280714
 H   -0.354602549397   -1.461533843779    0.214987280714
