15
0 1 
 C    0.643463662849   -0.905160485351    2.167564015170
 C    0.845463662849    0.280839514649   -1.405435984830
 C   -0.479536337151    0.660839514649   -1.648435984830
 C    1.193463662849   -0.230160485351   -0.162435984830
 C    0.231463662849   -0.348160485351    0.839564015170
 C   -1.437536337151    0.582839514649   -0.656435984830
 C   -1.083536337151    0.068839514649    0.592564015170
 H    1.588463662849    0.366839514649   -2.187435984830
 H   -0.751536337151    1.047839514649   -2.622435984830
 H    2.213463662849   -0.540160485351    0.018564015170
 H   -2.454536337151    0.900839514649   -0.850435984830
 H    0.189463662849   -0.303160485351    2.955564015170
 H    1.727463662849   -0.820160485351    2.265564015170
 H   -1.830536337151   -0.003160485351    1.371564015170
 H    0.350723662849   -1.957158485351    2.300234015170
