9
0 1 
 C   -0.336277696475   -1.036172483784    0.962666738383
 C    0.059722303525    0.059827516216   -0.007333261617
 O    0.931722303525    0.883827516216    0.265666738383
 N   -0.601277696475    0.088827516216   -1.154333261617
 H   -0.479277696475   -1.970172483784    0.416666738383
 H   -1.301277696475   -0.751172483784    1.384666738383
 H   -0.409277696475    0.842827516216   -1.795333261617
 H   -1.349277696475   -0.566172483784   -1.324333261617
 H    0.399262303525   -1.191322483784    1.765727738383
