7
-1 1 
 C    0.436194828193   -0.419027358836    1.311998868926
 C   -0.022805171807    0.019972641164   -0.076001131074
 O    0.095194828193    1.226972641164   -0.388001131074
 O   -0.508805171807   -0.832027358836   -0.855001131074
 H    0.107194828193    0.327972641164    2.038998868926
 H    1.526194828193   -0.456027358836    1.363998868926
 H    0.008746828193   -1.388537358836    1.607536868926
