8
0 1 
 C    0.208615718778    0.216000948788   -0.699205929580
 C   -0.208384281222   -0.225999051212    0.695794070420
 H   -0.457384281222   -0.188999051212   -1.460205929580
 H    0.158615718778    1.304000948788   -0.753205929580
 H    1.233615718778   -0.087999051212   -0.889205929580
 H   -1.229384281222    0.098000948788    0.845794070420
 H    0.404615718778    0.302000948788    1.427794070420
 H   -0.112834281222   -1.307959051212    0.869654070420
