7
-1 1 
 C   -0.217586198604   -1.373921262475    0.380199550054
 C   -0.000586198604    0.079078737525   -0.029800449946
 O   -0.758586198604    0.966078737525    0.404199550054
 O    0.973413801396    0.333078737525   -0.754800449946
 H   -0.191586198604   -1.990921262475   -0.520800449946
 H   -1.195586198604   -1.502921262475    0.847199550054
 H    0.575443801396   -1.707261262475    1.065749550054
