8
0 1 
 C   -0.451859779496   -0.058621745723   -0.607810908340
 C    0.449140220504    0.054378254277    0.611189091660
 H   -0.538859779496    0.912378254277   -1.092810908340
 H   -0.025859779496   -0.757621745723   -1.327810908340
 H   -1.449859779496   -0.360621745723   -0.294810908340
 H    1.346140220504    0.592378254277    0.314189091660
 H   -0.068069779496    0.605829254277    1.410187091660
 H    0.768890220504   -0.941815745723    0.950833091660
