8
0 1 
 C    0.297817885009   -0.693988595831    0.097990199149
 C   -0.301182114991    0.694011404169   -0.105009800851
 H    1.382817885009   -0.684988595831   -0.005009800851
 H    0.099817885009   -1.004988595831    1.122990199149
 H   -0.136182114991   -1.402988595831   -0.610009800851
 H    0.181817885009    1.365011404169    0.604990199149
 H   -0.106222114991    1.046661404169   -1.128549800851
 H   -1.381992114991    0.681021404169    0.099170199149
