14
0 1 
 C    0.098676208079   -0.150080009646   -0.348181177365
 C   -1.418323791921   -0.214080009646   -0.164181177365
 C    0.570676208079    1.304919990354   -0.316181177365
 C    0.763676208079   -0.957080009646    0.770818822635
 H    0.350676208079   -0.591080009646   -1.304181177365
 H   -1.643323791921    0.274919990354    0.785818822635
 H   -1.716323791921   -1.258080009646   -0.047181177365
 H    0.195676208079    1.806919990354    0.575818822635
 H    1.656676208079    1.324919990354   -0.293181177365
 H    0.242676208079    1.835919990354   -1.208181177365
 H    0.432676208079   -1.994080009646    0.728818822635
 H    1.842676208079   -0.926080009646    0.646818822635
 H    0.504676208079   -0.534080009646    1.742818822635
 H   -2.041173791921    0.255039990354   -0.940051177365
