11
0 1 
 C   -0.053788361360   -0.510886031802    0.027450472679
 C    0.834211638640    0.121113968198   -1.000549527321
 C   -0.791788361360    0.371113968198    0.985450472679
 H   -0.783788361360   -1.131886031802   -0.490549527321
 H    0.623211638640   -1.181886031802    0.552450472679
 H    1.158211638640   -0.706886031802   -1.634549527321
 H   -0.183788361360    1.233113968198    1.161450472679
 H   -1.728788361360    0.695113968198    0.530450472679
 H    1.730052638640    0.580653968198   -0.557499527321
 H    0.319536638640    0.825788968198   -1.670279527321
 H   -0.999325361360   -0.091854031802    1.961460472679
