8
0 1 
 C    0.204586447453    0.123187268917    0.720809376916
 C   -0.208413552547   -0.121812731083   -0.722190623084
 H   -0.618413552547    0.581187268917    1.272809376916
 H    0.475586447453   -0.818812731083    1.200809376916
 H    1.068586447453    0.786187268917    0.764809376916
 H    0.642586447453   -0.534812731083   -1.257190623084
 H   -0.491733552547    0.821327268917   -1.212320623084
 H   -1.031043552547   -0.851442731083   -0.752470623084
