8
0 1 
 C    0.493854533605   -0.601941794637   -0.076841560621
 C   -0.498145466395    0.598058205363    0.075158439379
 H    0.266854533605   -1.162941794637   -0.981841560621
 H    1.512854533605   -0.217941794637   -0.142841560621
 H    0.427854533605   -1.256941794637    0.790158439379
 H   -0.300145466395    1.091058205363    1.024158439379
 H   -1.545532366395    0.262578205363    0.054328439379
 H   -0.310794366395    1.330430205363   -0.723921560621
