8
0 1 
 C    0.437647779809    0.568926935728   -0.229481413102
 C   -0.432352220191   -0.579073064272    0.224518586898
 H   -0.072352220191    1.159926935728   -0.990481413102
 H    0.627647779809    1.227926935728    0.620518586898
 H    1.398647779809    0.210926935728   -0.603481413102
 H   -1.385352220191   -0.149073064272    0.517518586898
 H   -0.611562220191   -1.272244764272   -0.610585413102
 H   -0.020082220191   -1.056654764272    1.125602586898
