9
0 1 
 C   -0.361999136578   -0.042079117451   -1.454347592802
 C    0.004000863422    0.039920882549    0.016652407198
 O   -0.595999136578    0.768920882549    0.762652407198
 N    0.921000863422   -0.716079117451    0.629652407198
 H   -0.384999136578   -1.096079117451   -1.731347592802
 H    0.202000863422    0.624920882549   -2.112347592802
 H    1.137000863422   -0.465079117451    1.576652407198
 H    1.384000863422   -1.493079117451    0.201652407198
 H   -1.413149136578    0.201135882549   -1.668677592802
