8
0 1 
 C   -0.472649047710    0.357085212157    0.484899816764
 C    0.474350952290   -0.359914787843   -0.484100183236
 H    0.018350952290    0.509085212157    1.448899816764
 H   -0.748649047710    1.332085212157    0.082899816764
 H   -1.387649047710   -0.219914787843    0.629899816764
 H   -0.085649047710   -0.657914787843   -1.367100183236
 H    0.905320952290   -1.252634787843   -0.007320183236
 H    1.278010952290    0.322985212157   -0.796800183236
