8
0 1 
 C   -0.570003534304    0.278201266352    0.415162267941
 C    0.561996465696   -0.280798733648   -0.421837732059
 H   -1.261003534304   -0.510798733648    0.681162267941
 H   -0.147003534304    0.686201266352    1.335162267941
 H   -1.103003534304    1.079201266352   -0.088837732059
 H    1.337996465696    0.482201266352   -0.473837732059
 H    0.274686465696   -0.544408733648   -1.450407732059
 H    0.993666465696   -1.161468733648    0.076242267941
