22
0 1 
 C   -1.740942231458   -1.757263223590    0.957977585628
 C   -2.758942231458   -0.987263223590    1.832977585628
 C   -0.444942231458   -1.014263223590    0.773977585628
 C    0.614057768542   -1.025263223590    1.619977585628
 C   -0.118942231458   -0.085263223590   -0.286022414372
 C    1.174057768542    0.432736776410   -0.014022414372
 C   -0.774942231458    0.372736776410   -1.447022414372
 C    1.812057768542    1.365736776410   -0.844022414372
 C   -0.129942231458    1.312736776410   -2.276022414372
 C    1.151057768542    1.804736776410   -1.975022414372
 N    1.584057768542   -0.158263223590    1.158977585628
 H   -1.510942231458   -2.689263223590    1.469977585628
 H   -2.121942231458   -1.988263223590   -0.042022414372
 H   -2.385942231458   -0.970263223590    2.858977585628
 H    0.597057768542   -1.656263223590    2.501977585628
 H    2.468057768542    0.026736776410    1.618977585628
 H   -1.763942231458    0.016736776410   -1.723022414372
 H    2.800057768542    1.720736776410   -0.580022414372
 H   -0.642942231458    1.653736776410   -3.164022414372
 H    1.622057768542    2.526736776410   -2.627022414372
 H   -3.733392231458   -1.496723223590    1.802827585628
 H   -2.841942231458    0.061716776410    1.512417585628
