6
0 1 
 C   -0.451552727383   -0.137631274126    0.560385148025
 O    0.418447272617    0.076368725874   -0.549614851975
 H    0.742447272617    0.988368725874   -0.497614851975
 H   -0.129552727383    0.488368725874    1.392385148025
 H   -1.477822727383    0.139468725874    0.277571148025
 H   -0.399572727383   -1.189481274126    0.878035148025
