8
0 1 
 C    0.639224075653   -0.400390039833    0.073647163630
 C   -0.642775924347    0.396609960167   -0.076352836370
 H    0.754224075653   -1.096390039833   -0.756352836370
 H    1.491224075653    0.279609960167    0.078647163630
 H    0.648224075653   -0.946390039833    1.015647163630
 H   -0.752775924347    1.020609960167    0.808647163630
 H   -1.511870724347   -0.272200039833   -0.162189836370
 H   -0.586734324347    1.059768960167   -0.952182836370
