8
0 1 
 C   -0.732088443650   -0.240877221167   -0.133105258560
 C    0.732911556350    0.238122778833    0.130894741440
 H   -0.863088443650   -1.268877221167    0.205894741440
 H   -1.418088443650    0.407122778833    0.410894741440
 H   -0.967088443650   -0.161877221167   -1.188105258560
 H    0.861911556350    1.227122778833   -0.303105258560
 H    1.453731556350   -0.464797221167   -0.312189458560
 H    0.922821556350    0.294102778833    1.212930741440
