8
0 1 
 C    0.634777702082    0.426324667109   -0.054622639856
 C   -0.638222297918   -0.422675332891    0.052377360144
 H    1.004777702082    0.661324667109    0.943377360144
 H    1.402777702082   -0.126675332891   -0.596622639856
 H    0.413777702082    1.352324667109   -0.584622639856
 H   -0.349222297918   -1.316675332891    0.608377360144
 H   -1.431480297918    0.108724667109    0.598577360144
 H   -0.999616297918   -0.722475332891   -0.942352639856
