15
0 1 
 C    1.197870870482    1.766339264690    1.217808063117
 C   -0.900129129518   -1.347660735310   -0.919191936883
 C   -1.623129129518   -0.404660735310   -0.193191936883
 C    0.497870870482   -1.276660735310   -0.954191936883
 C   -0.945129129518    0.612339264690    0.489808063117
 C    1.166870870482   -0.263660735310   -0.256191936883
 C    0.454870870482    0.683339264690    0.467808063117
 H   -1.415129129518   -2.127660735310   -1.463191936883
 H   -2.702129129518   -0.445660735310   -0.162191936883
 H    1.060870870482   -2.007660735310   -1.517191936883
 H   -1.516129129518    1.353339264690    1.029808063117
 H    2.247870870482   -0.221660735310   -0.285191936883
 H    0.558870870482    2.649339264690    1.243808063117
 H    2.089870870482    2.047339264690    0.659808063117
 H    1.472690870482    1.498639264690    2.248738063117
