8
0 1 
 C   -0.540832536974   -0.536546271208   -0.010053453937
 C    0.545167463026    0.533453728792    0.011946546063
 H   -0.282832536974   -1.349546271208    0.668946546063
 H   -1.487832536974   -0.099546271208    0.308946546063
 H   -0.672832536974   -0.929546271208   -1.017053453937
 H    0.274167463026    1.304453728792   -0.710053453937
 H    1.515197463026    0.101543728792   -0.275283453937
 H    0.602517463026    1.009463728792    1.001956546063
