11
0 1 
 C   -0.399111746826   -0.244601351286    0.313754666780
 C   -0.403111746826   -0.259601351286   -1.223245333220
 C    0.774888253174    0.494398648714    0.925754666780
 H   -1.320111746826    0.209398648714    0.671754666780
 H   -0.360111746826   -1.271601351286    0.679754666780
 H    0.447888253174   -0.851601351286   -1.559245333220
 H    0.669888253174    1.569398648714    0.782754666780
 H    0.806888253174    0.294398648714    1.997754666780
 H    1.700888253174    0.145398648714    0.471754666780
 H   -1.327301746826   -0.728485351286   -1.592065333220
 H   -0.292551746826    0.749828648714   -1.646115333220
