8
0 1 
 C   -0.231320077646    0.530381736865    0.502463104158
 C    0.226679922354   -0.535618263135   -0.502536895842
 H   -1.166320077646    0.230381736865    0.976463104158
 H    0.525679922354    0.690381736865    1.270463104158
 H   -0.372320077646    1.494381736865    0.012463104158
 H    1.163679922354   -0.191618263135   -0.945536895842
 H   -0.518450077646   -0.661238263135   -1.301911895842
 H    0.422979922354   -1.499938263135   -0.011061895842
