8
0 1 
 C   -0.606584876740   -0.055902271052   -0.456166350404
 C    0.609415123260    0.054097728948    0.452833649596
 H   -1.187584876740   -0.943902271052   -0.207166350404
 H   -1.245584876740    0.811097728948   -0.308166350404
 H   -0.296584876740   -0.098902271052   -1.501166350404
 H    0.270415123260    0.034097728948    1.487833649596
 H    1.294525123260   -0.789171271052    0.281013649596
 H    1.131115123260    1.008266728948    0.287333649596
