8
1 1 
 C    0.049244079132    0.323853309976    0.726603403681
 N   -0.035755920868   -0.290146690024   -0.643396596319
 H    0.003244079132   -1.303146690024   -0.608396596319
 H   -0.917755920868   -0.052146690024   -1.087396596319
 H    0.696244079132    0.034853309976   -1.266396596319
 H   -0.798755920868   -0.024146690024    1.328603403681
 H   -0.046755920868    1.412853309976    0.640603403681
 H    0.974244079132    0.107067309976    1.281018403681
