8
0 1 
 C    0.137244379832    0.754216695522   -0.034475146555
 C   -0.131755620168   -0.756783304478    0.028524853445
 H    0.958244379832    0.963216695522   -0.722475146555
 H   -0.748755620168    1.291216695522   -0.370475146555
 H    0.400244379832    1.121216695522    0.952524853445
 H   -0.996755620168   -0.908783304478    0.676524853445
 H    0.723824379832   -1.270703304478    0.490984853445
 H   -0.402155620168   -1.165603304478   -0.956235146555
