10
-1 1 
 C    0.407329751812    0.249608950147   -0.949546269884
 C   -0.559670248188   -0.595391049853   -1.766546269884
 C    0.135329751812    0.141608950147    0.512453730116
 O   -0.955670248188    0.571608950147    0.920453730116
 O    1.009329751812   -0.348391049853    1.256453730116
 H    1.434329751812   -0.058391049853   -1.158546269884
 H    0.303329751812    1.290608950147   -1.238546269884
 H   -1.566670248188   -0.196391049853   -1.642546269884
 H   -0.541030248188   -1.647255749853   -1.445246269884
 H   -0.279030248188   -0.500146449853   -2.825866269884
