8
0 1 
 C   -0.645162022592   -0.050649384063   -0.403391442837
 C    0.647837977408    0.046350615937    0.400608557163
 H   -0.699162022592   -1.008649384063   -0.923391442837
 H   -1.500162022592    0.041350615937    0.267608557163
 H   -0.686162022592    0.758350615937   -1.134391442837
 H    0.664837977408    1.018350615937    0.897608557163
 H    1.525027977408   -0.032641384063   -0.258409442837
 H    0.663757977408   -0.725576384063    1.184110557163
