15
0 1 
 C    2.266808606896    0.845169819843   -0.166666026540
 C   -1.701191393104   -0.659830180157    0.120333973460
 C   -1.018191393104   -0.310830180157    1.283333973460
 C   -1.123191393104   -0.506830180157   -1.124666026540
 C    0.258808606896    0.195169819843    1.182333973460
 C    0.161808606896   -0.005830180157   -1.209666026540
 C    0.865808606896    0.337169819843   -0.066666026540
 H   -2.687191393104   -1.081830180157    0.206333973460
 H   -1.481191393104   -0.449830180157    2.251333973460
 H   -1.666191393104   -0.777830180157   -2.017666026540
 H    0.787808606896    0.474169819843    2.083333973460
 H    0.627808606896    0.091169819843   -2.181666026540
 H    2.450808606896    1.525169819843    0.667333973460
 H    2.382808606896    1.425169819843   -1.080666026540
 H    3.030458606896    0.053687819843   -0.146683026540
