7
-1 1 
 C    0.927918440078   -1.016438705359   -0.463124340685
 C   -0.046081559922    0.068561294641    0.023875659315
 O    0.095918440078    1.256561294641   -0.350124340685
 O   -0.974081559922   -0.299438705359    0.788875659315
 H    0.369918440078   -1.644438705359   -1.157124340685
 H    1.238918440078   -1.638438705359    0.379875659315
 H    1.828368440078   -0.621138705359   -0.955994340685
