11
0 1 
 C   -0.364341521412    0.445342051399    0.059071170972
 C   -0.707341521412   -0.989657948601    0.454071170972
 C    1.038658478588    0.578342051399   -0.520928829028
 H   -1.052341521412    0.718342051399   -0.726928829028
 H   -0.475341521412    1.112342051399    0.915071170972
 H    0.075658478588   -1.367657948601    1.112071170972
 H    1.705658478588    0.334342051399    0.311071170972
 H    1.302658478588   -0.164657948601   -1.258928829028
 H   -0.787151521412   -1.625907948601   -0.439692829028
 H   -1.655321521412   -1.017777948601    1.011327170972
 H    1.279398478588    1.605832051399   -0.831277829028
