11
0 1 
 C   -0.572194562489   -0.052081213307   -0.263695466001
 C    0.198805437511   -1.130081213307    0.469304533999
 C    0.329805437511    1.177918786693   -0.231695466001
 H   -1.500194562489    0.155918786693    0.270304533999
 H   -0.796194562489   -0.359081213307   -1.282695466001
 H   -0.486194562489   -1.723081213307    1.077304533999
 H    0.726805437511   -1.769081213307   -0.226695466001
 H   -0.245194562489    2.098918786693   -0.300695466001
 H    1.052805437511    1.120918786693   -1.047695466001
 H    0.909395437511   -0.565964213307    1.091264533999
 H    0.857715437511    1.091979786693    0.729514533999
