18
0 1 
 C    1.945468051136    0.153969894446    0.640385351449
 C    2.853468051136   -0.371030105554   -0.479614648551
 C    0.475468051136    0.094969894446    0.308385351449
 C   -0.117531948864   -1.111030105554   -0.076614648551
 C   -0.308531948864    1.248969894446    0.357385351449
 C   -1.478531948864   -1.160030105554   -0.404614648551
 C   -1.672531948864    1.200969894446    0.045385351449
 C   -2.256531948864   -0.003030105554   -0.346614648551
 H    2.123468051136   -0.444030105554    1.531385351449
 H    2.226468051136    1.183969894446    0.870385351449
 H    2.590468051136   -1.412030105554   -0.666614648551
 H    0.463468051136   -2.021030105554   -0.108614648551
 H    0.136468051136    2.190969894446    0.646385351449
 H   -1.923531948864   -2.104030105554   -0.683614648551
 H   -2.269531948864    2.101969894446    0.092385351449
 H   -3.303531948864   -0.045030105554   -0.607614648551
 H    3.911612051136   -0.289460105554   -0.190344648551
 H    2.703604051136    0.198599894446   -1.408624648551
