8
0 1 
 C    0.639713750537   -0.418629544630    0.011667037541
 C   -0.635286249463    0.411370455370   -0.011332962459
 H    0.777713750537   -0.853629544630    1.001667037541
 H    0.567713750537   -1.222629544630   -0.716332962459
 H    1.461713750537    0.233370455370   -0.211332962459
 H   -1.440286249463   -0.130629544630    0.484667037541
 H   -0.463156249463    1.386550455370    0.467617037541
 H   -0.956416249463    0.673400455370   -1.030262962459
