8
0 1 
 C    0.396540920843    0.444396601573   -0.471753116971
 C   -0.396459079157   -0.448603398427    0.469246883029
 H   -0.121459079157    0.561396601573   -1.420753116971
 H    0.509540920843    1.424396601573   -0.010753116971
 H    1.389540920843    0.028396601573   -0.643753116971
 H   -1.388459079157   -0.017603398427    0.595246883029
 H   -0.467649079157   -1.462493398427    0.048586883029
 H    0.077510920843   -0.484003398427    1.461266883029
