8
0 1 
 C   -0.535718569045    0.176277373348   -0.516274951665
 C    0.533281430955   -0.172722626652    0.519725048335
 H   -1.195718569045    0.948277373348   -0.126274951665
 H   -0.056718569045    0.542277373348   -1.425274951665
 H   -1.118718569045   -0.712722626652   -0.764274951665
 H    1.196281430955   -0.903722626652    0.063725048335
 H    0.072591430955   -0.623422626652    1.411145048335
 H    1.131301430955    0.706987373348    0.799875048335
