8
0 1 
 C   -0.336270542338   -0.295439893319   -0.617263989284
 C    0.330729457662    0.295560106681    0.619736010716
 H   -0.346270542338    0.425560106681   -1.435263989284
 H    0.225729457662   -1.169439893319   -0.948263989284
 H   -1.355270542338   -0.606439893319   -0.381263989284
 H    1.304729457662    0.675560106681    0.321736010716
 H   -0.279760542338    1.124283106681    1.007706010716
 H    0.516819457662   -0.450954893319    1.405916010716
