11
0 1 
 C    0.115711627159    0.417958522823    0.366732168643
 C    1.195711627159   -0.349041477177   -0.392267831357
 C   -1.305288372841   -0.048041477177    0.049732168643
 H    0.291711627159    0.309958522823    1.438732168643
 H    0.177711627159    1.479958522823    0.129732168643
 H    0.890711627159   -0.437041477177   -1.437267831357
 H   -1.477288372841    0.071958522823   -1.020267831357
 H   -1.426288372841   -1.100041477177    0.311732168643
 H    1.356591627159   -1.336901477177    0.064073168643
 H    2.146081627159    0.204798522823   -0.384293831357
 H   -2.032278372841    0.558748522823    0.609456168643
