19
0 1 
 C   -2.678636094661    1.154777940126    0.541124294537
 C   -0.313636094661    0.051777940126    0.329124294537
 C   -1.451636094661    0.756777940126   -0.197875705463
 C    0.628363905339   -0.096222059874   -0.717875705463
 C   -1.143636094661    1.021777940126   -1.499875705463
 C   -0.001636094661   -0.479222059874    1.589124294537
 C    1.214363905339   -1.128222059874    1.764124294537
 C    2.129363905339   -1.253222059874    0.705124294537
 C    1.844363905339   -0.738222059874   -0.546875705463
 N    0.081363905339    0.500777940126   -1.825875705463
 H   -0.698636094661   -0.380222059874    2.403124294537
 H    1.462363905339   -1.541222059874    2.735124294537
 H    3.069363905339   -1.766222059874    0.871124294537
 H   -3.077636094661    2.058777940126    0.078124294537
 H   -2.330636094661    1.449777940126    1.532124294537
 H   -1.793636094661    1.552777940126   -2.187875705463
 H    0.488363905339    0.536777940126   -2.754875705463
 H    2.541363905339   -0.843222059874   -1.368875705463
 H   -3.497536094661    0.428623340126    0.651124294537
