19
0 1 
 C    1.270226852812    1.825965443729    1.167295208452
 C    0.324226852812    2.850965443729    1.772295208452
 C    0.581226852812    0.708965443729    0.457295208452
 C    0.251226852812   -0.439034556271    1.127295208452
 C    0.258226852812    0.812965443729   -0.895704791548
 C   -0.307773147188   -1.507034556271    0.439295208452
 C   -0.339773147188   -0.232034556271   -1.569704791548
 C   -0.643773147188   -1.419034556271   -0.913704791548
 O   -1.216773147188   -2.484034556271   -1.584704791548
 H    1.932226852812    2.320965443729    0.466295208452
 H    1.894226852812    1.406965443729    1.959295208452
 H   -0.304773147188    2.371965443729    2.525295208452
 H    0.473226852812   -0.535034556271    2.183295208452
 H    0.490226852812    1.722965443729   -1.432704791548
 H   -0.556773147188   -2.402034556271    0.991295208452
 H   -0.570773147188   -0.137034556271   -2.620704791548
 H   -1.330773147188   -3.255034556271   -1.018704791548
 H   -0.274233147188    3.338655443729    0.988715208452
 H    0.962576852812    3.612775443729    2.243615208452
