8
0 1 
 C    0.424518922315    0.095413936873    0.641096293338
 C   -0.429481077685   -0.100586063127   -0.635903706662
 H    0.556518922315   -0.847586063127    1.169096293338
 H    1.405518922315    0.465413936873    0.350096293338
 H   -0.052481077685    0.822413936873    1.297096293338
 H    0.072518922315   -0.802586063127   -1.302903706662
 H   -0.464481077685    0.864413936873   -1.127903706662
 H   -1.458511077685   -0.440486063127   -0.447308706662
