11
1 1 
 C   -0.371971711522    0.193604699045    0.428823154145
 C   -0.223971711522   -1.292395300955    0.140823154145
 N    0.505028288478    0.982604699045   -0.477176845855
 H   -1.419971711522    0.480604699045    0.292823154145
 H   -0.101971711522    0.388604699045    1.473823154145
 H    0.835028288478   -1.561395300955    0.157823154145
 H   -0.630971711522   -1.514395300955   -0.848176845855
 H    0.358028288478    1.977604699045   -0.361176845855
 H    1.484028288478    0.789604699045   -0.309176845855
 H    0.310028288478    0.756604699045   -1.457176845855
 H   -0.755441711522   -1.886775300955    0.898619154145
