15
0 1 
 C   -0.129564413894    1.430269350104   -1.094762965692
 C    0.434435586106    2.620269350104   -0.305762965692
 C   -0.083564413894    0.134269350104   -0.357762965692
 C    0.879435586106   -0.831730649897   -0.372762965692
 C   -0.650564413894   -1.432730649897    1.077237034308
 N   -1.076564413894   -0.287730649896    0.526237034308
 N    0.493435586106   -1.805730649897    0.506237034308
 H   -1.162564413894    1.633269350103   -1.372762965692
 H    0.447435586106    1.310269350103   -2.009762965692
 H    1.438435586106    2.350269350104    0.025237034308
 H    1.884435586106   -0.768730649896   -0.667762965692
 H   -1.183564413894   -2.000730649896    1.831237034308
 H    1.029435586106   -2.618730649896    0.785237034308
 H   -0.220964413894    2.805789350104    0.557967034308
 H    0.509355586106    3.510639350104   -0.947352965692
