11
0 1 
 C   -0.499760346287   -0.364180364544    0.184642003685
 C    0.139239653713    0.798819635456    0.927642003685
 C    0.313239653713   -0.462180364544   -1.100357996315
 H   -1.559760346287   -0.198180364544   -0.007357996315
 H   -0.365760346287   -1.276180364544    0.767642003685
 H   -0.233760346287    1.739819635456    0.525642003685
 H   -0.046760346287    0.747819635456    2.000642003685
 H    0.307239653713   -1.483180364544   -1.483357996315
 H    1.209709653713    0.702429635456    0.693545003685
 H    1.318169653713   -0.146620364544   -0.783287996315
 H   -0.066110346287    0.242019635456   -1.855467996315
