8
0 1 
 C   -0.164409560152   -0.656187268917    0.354963349506
 C    0.166590439848    0.654812731083   -0.359036650494
 H    0.450590439848   -1.471187268917   -0.026036650494
 H    0.015590439848   -0.545187268917    1.424963349506
 H   -1.213409560152   -0.908187268917    0.199963349506
 H   -0.399409560152    1.460812731083    0.106963349506
 H   -0.113849560152    0.591822731083   -1.420816650494
 H    1.234520439848    0.888292731083   -0.236536650494
