11
0 1 
 C   -0.207764189607    0.354655718026    0.443140521799
 C   -0.525764189607    0.514655718026   -1.035859478201
 C    0.715235810393   -0.836344281974    0.632140521799
 H    0.293235810393    1.239655718026    0.831140521799
 H   -1.132764189607    0.200655718026    1.000140521799
 H   -1.112764189607   -0.346344281974   -1.360859478201
 H    0.418235810393    0.488655718026   -1.585859478201
 H    0.208235810393   -1.717344281974    0.239140521799
 H    1.622235810393   -0.673344281974    0.049140521799
 H   -1.062434189607    1.429935718026   -1.326109478201
 H    0.983825810393   -1.014404281974    1.683880521799
