9
0 1 
 C   -0.535662196658   -0.122214644399    0.101279445779
 C    0.087337803342    1.240785355601    0.395279445779
 O    0.391337803342   -1.063214644399   -0.417720554221
 H   -0.940662196658   -0.511214644399    1.033279445779
 H   -1.364662196658   -0.001214644399   -0.597720554221
 H   -0.575662196658    1.744785355601    1.089279445779
 H    0.811337803342   -0.683214644399   -1.222720554221
 H    0.149377803342    1.866470355601   -0.507310554221
 H    1.047577803342    1.139746355601    0.922279445779
