15
0 1 
 C   -1.026410061486   -2.058620884459   -0.826280428489
 C    1.460589938514    0.345379115541    0.715719571511
 C    0.870589938514   -0.815620884459    0.237719571511
 C    0.784589938514    1.557379115541    0.626719571511
 C   -0.400410061486   -0.791620884459   -0.323280428489
 C   -0.484410061486    1.597379115541    0.071719571511
 C   -1.074410061486    0.427379115541   -0.402280428489
 H    2.450589938514    0.312379115541    1.148719571511
 H    1.407589938514   -1.750620884459    0.303719571511
 H    1.246589938514    2.463379115541    0.989719571511
 H   -1.016410061486    2.535379115541    0.003719571511
 H   -2.109410061486   -1.938620884459   -0.861280428489
 H   -0.809410061486   -2.854620884459   -0.116280428489
 H   -2.061410061486    0.469379115541   -0.839280428489
 H   -0.657560061486   -2.352120884459   -1.820160428489
