8
0 1 
 C    0.264344317720    0.624468252337    0.355388199852
 C   -0.255655682280   -0.627531747663   -0.356611800148
 H    1.352344317720    0.664468252337    0.311388199852
 H   -0.139655682280    1.508468252337   -0.137611800148
 H   -0.056655682280    0.623468252337    1.397388199852
 H   -1.343655682280   -0.584531747663   -0.312611800148
 H    0.057484317720   -1.537780747663    0.175728199852
 H    0.026684317720   -0.637615747663   -1.419711800148
