14
0 1 
 C    0.023077822215   -0.366954511557    0.014776511747
 C    1.459077822215    0.170045488443   -0.024223488253
 C   -0.704922177785    0.166045488443    1.249776511747
 C   -0.772922177785   -0.016954511557   -1.247223488253
 H    0.065077822215   -1.448954511557    0.101776511747
 H    1.970077822215   -0.165954511557    0.877776511747
 H    1.423077822215    1.261045488443   -0.001223488253
 H   -0.802922177785    1.250045488443    1.185776511747
 H   -1.697922177785   -0.279954511557    1.309776511747
 H   -0.149922177785   -0.089954511557    2.151776511747
 H   -0.349922177785   -0.527954511557   -2.110223488253
 H   -1.805922177785   -0.344954511557   -1.131223488253
 H   -0.754922177785    1.060045488443   -1.406223488253
 H    2.051965822215   -0.144048111557   -0.895903488253
