8
0 1 
 C    0.310884861987    0.646441743857   -0.259830737216
 C   -0.315115138013   -0.645558256143    0.262169262784
 H    0.219884861987    1.443441743857    0.481169262784
 H    1.368884861987    0.485441743857   -0.453830737216
 H   -0.150115138013    0.957441743857   -1.197830737216
 H   -0.370115138013   -1.365558256143   -0.552830737216
 H   -1.331815138013   -0.458628256143    0.638169262784
 H    0.313644861987   -1.072658256143    1.057309262784
