8
0 1 
 C   -0.255855877170   -0.082337551923   -0.712411908070
 C    0.255144122830    0.083662448077    0.714588091930
 H   -1.207855877170    0.439662448077   -0.824411908070
 H    0.455144122830    0.343662448077   -1.413411908070
 H   -0.398855877170   -1.141337551923   -0.932411908070
 H    1.168144122830   -0.502337551923    0.803588091930
 H   -0.498095877170   -0.294087551923    1.421648091930
 H    0.489994122830    1.138662448077    0.919088091930
