11
0 1 
 C    0.509678595492    0.142675778638   -0.397496095535
 C   -0.695321404508    1.041675778638    0.045503904465
 C    0.221678595492   -1.174324221362    0.306503904465
 H    1.459678595492    0.549675778638   -0.046496095535
 H    0.551678595492    0.003675778638   -1.472496095535
 H   -0.435321404508    2.094675778638    0.087503904465
 H   -1.560321404508    0.918675778638   -0.613496095535
 H    1.129678595492   -1.769324221362    0.369503904465
 H   -0.583321404508   -1.763324221362   -0.135496095535
 H   -0.916502604508    0.655875778638    1.051613904465
 H   -0.074640904508   -0.809324221362    1.300983904465
