11
0 1 
 C   -0.108501779778   -0.518851735975   -0.241883074042
 C   -0.254501779778   -0.218851735975    1.248116925958
 C    0.349498220222    0.704148264025   -1.028883074042
 H    0.647498220222   -1.298851735975   -0.351883074042
 H   -1.052501779778   -0.897851735975   -0.641883074042
 H    0.641498220222    0.297148264025    1.596116925958
 H   -0.326501779778   -1.168851735975    1.780116925958
 H   -0.379501779778    1.508148264025   -0.883883074042
 H    1.296498220222    1.050148264025   -0.596883074042
 H   -1.153811779778    0.372436264025    1.475310925958
 H    0.487628220222    0.537210264025   -2.107332074042
