8
0 1 
 C   -0.424335874839    0.429709316354    0.444805671029
 C    0.425664125161   -0.432290683646   -0.443194328971
 H   -0.515335874839    0.009709316354    1.447805671029
 H    0.015664125161    1.425709316354    0.500805671029
 H   -1.407335874839    0.468709316354   -0.021194328971
 H    0.611664125161    0.090709316354   -1.381194328971
 H   -0.096975874839   -1.377140683646   -0.653234328971
 H    1.376504125161   -0.586960683646    0.087825671029
