15
0 1 
 C   -1.142230543538    0.364828855111    2.146070396586
 C    1.547769456462    0.311828855111   -0.573929603414
 C    0.900769456462    0.517828855111    0.658070396586
 C    0.859769456462   -0.279171144889   -1.632929603414
 C   -0.435230543538    0.138828855111    0.831070396586
 C   -0.471230543538   -0.655171144889   -1.461929603414
 C   -1.113230543538   -0.445171144889   -0.236929603414
 H    2.569769456462    0.628828855111   -0.716929603414
 H    1.433769456462    0.984828855111    1.474070396586
 H    1.350769456462   -0.433171144889   -2.584929603414
 H   -1.012230543538   -1.108171144889   -2.283929603414
 H   -0.514230543538   -0.031171144889    2.940070396586
 H   -2.088230543538   -0.180171144889    2.149070396586
 H   -2.148230543538   -0.736171144889   -0.122929603414
 H   -1.334381543538    1.425269855111    2.366390396586
