11
0 1 
 C   -0.267267865895    0.395371873334    0.287617765957
 C   -0.839267865895   -0.210628126666   -1.000382234043
 C    1.092732134105   -0.158628126666    0.720617765957
 H   -0.196267865895    1.478371873334    0.185617765957
 H   -0.964267865895    0.182371873334    1.092617765957
 H   -0.857267865895   -1.296628126666   -0.900382234043
 H    1.344732134105    0.240371873334    1.703617765957
 H    1.869732134105    0.139371873334    0.019617765957
 H    1.049732134105   -1.246628126666    0.780617765957
 H   -1.871047865895    0.155718873334   -1.106282234043
 H   -0.210987865895    0.036095673334   -1.868932234043
