18
0 1 
 C    0.399344456918   -1.390191782936    1.420631885859
 C   -0.126655543082   -2.692191782936    0.942631885859
 C    0.170344456918   -0.283191782936    0.462631885859
 C   -1.115655543082    0.217808217064    0.236631885859
 C    1.238344456918    0.252808217064   -0.223368114141
 C   -1.329655543082    1.268808217064   -0.651368114141
 C    1.028344456918    1.301808217064   -1.109368114141
 C   -0.257655543082    1.822808217064   -1.307368114141
 H   -0.114655543082   -1.143191782936    2.348631885859
 H    1.464344456918   -1.477191782936    1.638631885859
 H   -1.182655543082   -2.561191782936    0.701631885859
 H   -1.959655543082   -0.208191782936    0.761631885859
 H    2.235344456918   -0.129191782936   -0.058368114141
 H   -2.326655543082    1.654808217064   -0.813368114141
 H    1.866344456918    1.740808217064   -1.632368114141
 H   -0.406655543082    2.648808217064   -1.987368114141
 H   -0.035917543082   -3.440211082936    1.744026885859
 H    0.379723456918   -3.020400782936    0.022925885859
