8
0 1 
 C   -0.047177312785   -0.749456731240   -0.150041557199
 C    0.044822687215    0.749543268760    0.155958442801
 H   -0.615177312785   -0.909456731240   -1.064041557199
 H    0.948822687215   -1.163456731240   -0.298041557199
 H   -0.530177312785   -1.274456731240    0.675958442801
 H    0.441822687215    1.245543268760   -0.729041557199
 H   -0.958477312785    1.151153268760    0.361113442801
 H    0.741222687215    0.949643268760    0.983601442801
