8
0 1 
 C    0.571765879110   -0.372699989844    0.358876950468
 C   -0.572234120890    0.373300010156   -0.364123049532
 H    0.614765879110   -0.063699989844    1.404876950468
 H    0.409765879110   -1.449699989844    0.318876950468
 H    1.523765879110   -0.136699989844   -0.116123049532
 H   -1.443234120890    0.338300010156    0.278876950468
 H   -0.283964120890    1.425122210156   -0.507553349532
 H   -0.815524120890   -0.120466589844   -1.316490049532
