11
1 1 
 C   -0.200410790688    0.352154578768    0.431362941491
 C   -1.047410790688    0.107154578768   -0.811637058509
 N    1.089589209312   -0.384845421232    0.358362941491
 H   -0.023410790688    1.428154578768    0.539362941491
 H   -0.764410790688    0.018154578768    1.309362941491
 H   -1.133410790688   -0.967845421232   -0.988637058509
 H   -0.537410790688    0.567154578768   -1.653637058509
 H    1.655589209312   -0.078845421232   -0.424637058509
 H    1.635589209312   -0.236845421232    1.200362941491
 H    0.942589209312   -1.383845421232    0.274362941491
 H   -2.056660790688    0.532179578768   -0.707902058509
