11
0 1 
 C   -0.126452059362   -0.441593950962   -0.339183494168
 C    1.165547940638    0.292406049038   -0.449183494168
 C   -1.059452059362    0.113406049038    0.761816505832
 H   -0.580452059362   -0.403593950962   -1.252183494168
 H    0.123547940638   -1.423593950962   -0.140183494168
 H    0.967547940638    1.350406049038   -0.604183494168
 H    1.740547940638   -0.103593950962   -1.287183494168
 H   -0.445452059362    0.123406049038    1.658816505832
 H   -1.258452059362    1.140406049038    0.450816505832
 H    1.704783940638    0.132306049038    0.496116505832
 H   -2.009694059362   -0.389693950962    0.994116505832
