16
0 1 
 C    0.858544547526    0.647836718175   -2.732567197728
 C    0.562544547526   -0.983163281825   -0.825567197728
 C    0.415544547526    0.308836718175   -1.328567197728
 C    0.171544547526   -1.295163281825    0.472432802272
 C   -0.152455452474    1.281836718175   -0.512567197728
 C   -0.401455452474   -0.319163281825    1.274432802272
 C   -0.560455452474    0.968836718175    0.781432802272
 O   -0.786455452474   -0.607163281825    2.551432802272
 H    0.996544547526   -1.750163281825   -1.450567197728
 H    0.300544547526   -2.290163281825    0.866432802272
 H    1.664544547526   -0.026163281825   -3.020567197728
 H    1.267544547526    1.658836718175   -2.731567197728
 H   -0.279455452474    2.289836718175   -0.884567197728
 H   -1.001455452474    1.735836718175    1.402432802272
 H   -1.161455452474    0.162836718175    2.988432802272
 H    0.052342547526    0.593801718175   -3.478967197728
