8
0 1 
 C   -0.662183898446   -0.340176003724   -0.145370417018
 C    0.657816101554    0.343823996276    0.147629582982
 H   -1.491183898446    0.216823996276    0.291629582982
 H   -0.809183898446   -0.420176003724   -1.223370417018
 H   -0.632183898446   -1.335176003724    0.283629582982
 H    1.438816101554   -0.216176003724   -0.364370417018
 H    0.875716101554    0.338163996276    1.225816582982
 H    0.670026101554    1.373103996276   -0.240234417018
