8
0 1 
 C    0.280554141074   -0.598112822702   -0.371106997943
 C   -0.285445858926    0.599887177298    0.370893002057
 H    0.378554141074   -0.374112822702   -1.435106997943
 H    1.258554141074   -0.856112822702    0.034893002057
 H   -0.366445858926   -1.466112822702   -0.246106997943
 H   -0.430445858926    0.345887177298    1.419893002057
 H   -1.243665858926    0.926327177298   -0.059506997943
 H    0.461694141074    1.402997177298    0.288483002057
