15
0 1 
 C   -1.669639011667   -1.204685195820    1.329218440372
 C   -1.004639011667    0.128314804180   -0.688781559628
 C   -0.642639011667   -0.450685195820    0.525218440372
 C   -0.060639011667    0.804314804180   -1.452781559628
 C    1.263360988333    0.903314804180   -1.019781559628
 C    0.687360988333   -0.356685195820    0.954218440372
 C    1.642360988333    0.322314804180    0.185218440372
 H   -2.027639011667    0.068314804180   -1.033781559628
 H   -0.354639011667    1.263314804180   -2.388781559628
 H   -2.655639011667   -0.786685195820    1.116218440372
 H   -1.480639011667   -1.051685195820    2.393218440372
 H    1.991360988333    1.436314804180   -1.617781559628
 H    0.985360988333   -0.793685195820    1.897218440372
 H    2.665360988333    0.403314804180    0.529218440372
 H   -1.689769011667   -2.280025195820    1.098518440372
