16
0 1 
 C    0.259277774905    0.476180066962    2.880799620234
 C    0.329277774905    1.007180066962   -0.851200379766
 C   -0.099722225095   -0.205819933038   -1.343200379766
 C    0.452277774905    1.215180066962    0.504799620234
 C    0.119277774905    0.220180066962    1.397799620234
 C   -0.459722225095   -1.214819933038   -0.479200379766
 C   -0.345722225095   -0.999819933038    0.889799620234
 O   -0.216722225095   -0.395819933038   -2.685200379766
 H    0.568277774905    1.781180066962   -1.558200379766
 H    0.819277774905    2.165180066962    0.866799620234
 H   -0.816722225095   -2.162819933038   -0.856200379766
 H   -0.541722225095   -1.276819933038   -2.898200379766
 H    0.620277774905    1.492180066962    3.031799620234
 H    1.027277774905   -0.195819933038    3.265799620234
 H   -0.616722225095   -1.794819933038    1.572799620234
 H   -0.655985025095    0.340987066962    3.475789620234
