8
0 1 
 C   -0.226678687058   -0.514343147636    0.514773577392
 C    0.230321312942    0.516656852364   -0.512226422608
 H    0.243321312942   -0.319343147636    1.477773577392
 H   -1.311678687058   -0.466343147636    0.626773577392
 H    0.043321312942   -1.516343147636    0.177773577392
 H   -0.251678687058    0.284656852364   -1.464226422608
 H    1.321891312942    0.464496852364   -0.637712422608
 H   -0.088548687058    1.525326852364   -0.210710422608
