16

O         -2.77220       -0.00030        0.00030
C          1.37860       -0.00020        0.00030
C          0.68100       -1.20810        0.00020
C          0.68140        1.20790        0.00010
C         -0.71390       -1.20770       -0.00020
C         -0.71350        1.20810       -0.00010
C         -1.41110        0.00040       -0.00040
C          2.86970       -0.00020       -0.00020
H          1.21290       -2.15580       -0.00150
H          1.21360        2.15560       -0.00170
H         -1.24570       -2.15540       -0.00070
H         -1.25110        2.15240       -0.00060
H          3.26500        0.87800        0.52160
H          3.26540       -0.88280        0.51400
H          3.24510        0.00420       -1.02830
H         -3.08690       -0.92060        0.00040
