10

O          0.94212       -0.05879       -0.05651
C          2.36212       -0.05879       -0.05651
C          2.86878       -1.09191       -1.04967
O          4.28878       -1.09191       -1.04967
H          0.61879        0.60051        0.57728
H          2.71878       -0.30062        0.92288
H          2.71879        0.91031       -0.33677
H          2.51211       -0.85007       -2.02906
H          2.51211       -2.06100       -0.76941
H          4.61211       -0.21338       -1.30374
