11

O          1.81980        0.16390       -0.00440
N         -1.84600       -0.15030       -0.00430
C         -0.54740        0.50660        0.00450
C          0.57370       -0.52020        0.00420
H         -0.46290        1.14960        0.88760
H         -0.45340        1.16390       -0.86760
H          0.52490       -1.15860       -0.88440
H          0.53030       -1.15180        0.89790
H         -1.93730       -0.72140       -0.84360
H         -2.58140        0.55340       -0.05640
H          2.51710       -0.51380       -0.00370
