11

O         -1.62130       -0.71560        0.00460
O         -0.57000        1.30330       -0.00190
C          0.72760       -0.75990       -0.00700
C          1.98620        0.08990        0.00540
C         -0.52260        0.08230       -0.00120
H          0.72030       -1.38550       -0.90560
H          0.71650       -1.40380        0.87880
H          2.87620       -0.54680        0.00230
H          2.02880        0.74250       -0.87300
H          2.02270        0.72560        0.89640
H         -2.45200       -0.19390        0.00830
