19
1 1 
 C    1.211479554019   -0.209860219212   -0.484644184151
 C    1.099479554019    0.006139780788   -1.998644184151
 N    2.642479554019   -0.535860219212   -0.058644184151
 H    0.855479554019    0.691139780788    0.028355815849
 H    0.555479554019   -1.039860219212   -0.199644184151
 H    1.719479554019   -0.733860219212   -2.509644184151
 H    1.451479554019    1.007139780788   -2.261644184151
 H    3.269479554019    0.224139780788   -0.303644184151
 H    2.709479554019   -0.647860219212    0.947355815849
 H    2.996479554019   -1.374860219212   -0.500644184151
 H    0.055013554019   -0.126840219212   -2.317084184151
 C   -2.331520445981    0.807139780788    0.671355815849
 C   -2.889520445981   -0.014860219212    1.843355815849
 H   -3.128520445981    1.082139780788   -0.020644184151
 H   -1.848520445981    1.711139780788    1.046355815849
 H   -1.594520445981    0.206139780788    0.144355815849
 H   -2.095520445981   -0.198860219212    2.568355815849
 H   -3.333378445981   -0.970590219212    1.527815815849
 H   -3.677601445981    0.608449780788    2.291025815849
