23
0 1 
 C   -2.628417943644   -1.687811896922    0.190380150404
 C    0.436582056356   -0.045811896922   -1.328619849596
 C    1.465582056356   -0.670811896922   -0.633619849596
 C   -0.886417943644   -0.383811896922   -1.069619849596
 C   -1.196417943644   -1.331811896922   -0.099619849596
 C    1.162582056356   -1.634811896922    0.321380150404
 C   -0.162417943644   -1.959811896922    0.587380150404
 H    0.668582056356    0.694188103078   -2.081619849596
 H    2.494582056356   -0.412811896922   -0.840619849596
 H   -1.674417943644    0.076188103078   -1.637619849596
 H    1.955582056356   -2.139811896922    0.850380150404
 H   -2.679417943644   -2.705811896922    0.580380150404
 H   -3.173417943644   -1.676811896922   -0.754619849596
 H   -0.386417943644   -2.705811896922    1.336380150404
 H   -3.127741943644   -1.001958896922    0.890580150404
 C    1.114582056356    2.749188103078    1.198380150404
 C    0.727582056356    4.073188103078    0.531380150404
 H    1.815582056356    2.207188103078    0.563380150404
 H    1.572582056356    2.951188103078    2.155380150404
 H    0.252582056356    2.122188103078    1.383380150404
 H    0.123582056356    4.646188103078    1.234380150404
 H    0.142602056356    3.894903103078   -0.382959849596
 H    1.619972056356    4.675534103078    0.305950150404
