11
0 1 
 C    0.412671834077    0.318110541778   -0.220441312533
 C   -0.867328165923    0.910110541778    0.381558687467
 C    0.473671834077   -1.204889458222   -0.176441312533
 H    0.514671834077    0.650110541778   -1.254441312533
 H    1.274671834077    0.691110541778    0.319558687467
 H   -1.080328165923    0.338110541778    1.270558687467
 H   -0.335328165923   -1.638889458222   -0.763441312533
 H    1.423671834077   -1.539889458222   -0.592441312533
 H    0.399671834077   -1.552889458222    0.855558687467
 H   -0.712106165923    1.961780541778    0.664238687467
 H   -1.711339165923    0.812750541778   -0.317131312533
