8
0 1 
 C   -0.729696727669   -0.112806251794    0.201901722893
 C    0.728303272331    0.115193748206   -0.202098277107
 H   -1.329696727669    0.782193748206    0.050901722893
 H   -1.138696727669   -0.928806251794   -0.393098277107
 H   -0.787696727669   -0.387806251794    1.250901722893
 H    0.787303272331    0.211193748206   -1.286098277107
 H    1.127912272331    1.025693748206    0.268331722893
 H    1.357466272331   -0.730896251794    0.111401722893
