35
0 1 
 C    3.184996934162   -0.011874727215   -1.428405183126
 C    0.773996934162   -2.132874727215    0.601594816874
 C    2.014996934162   -1.449874727215    0.494594816874
 C    2.074996934162   -0.860874727215   -0.829405183126
 C    0.940996934162   -1.255874727215   -1.458405183126
 C    0.384996934162   -2.808874727215    1.756594816874
 C    1.254996934162   -2.811874727215    2.831594816874
 C    2.856996934162   -1.423874727215    1.615594816874
 C    2.467996934162   -2.097874727215    2.778594816874
 N    0.154996934162   -2.012874727215   -0.612405183126
 H   -0.786003065838   -2.336874727215   -0.838405183126
 H   -0.552003065838   -3.341874727215    1.802594816874
 H    0.686996934162   -0.981874727215   -2.472405183126
 H    0.979996934162   -3.329874727215    3.739594816874
 H    3.786996934162   -0.879874727215    1.581594816874
 H    3.600996934162    0.632125272785   -0.654405183126
 H    2.752996934162    0.635125272785   -2.191405183126
 H    3.115996934162   -2.093874727215    3.642594816874
 H    3.997576934162   -0.595374727215   -1.885840183126
 C   -2.349003065838    0.966125272785    2.058594816874
 C   -0.999003065838    1.220125272785   -0.060405183126
 C   -2.146003065838    1.522125272785    0.670594816874
 C   -0.816003065838    1.738125272785   -1.340405183126
 C   -1.798003065838    2.522125272785   -1.927405183126
 C   -3.116003065838    2.328125272785    0.085594816874
 C   -2.957003065838    2.811125272785   -1.213405183126
 O   -1.586003065838    2.987125272785   -3.194405183126
 H   -0.227003065838    0.607125272785    0.384594816874
 H    0.098996934162    1.518125272785   -1.870405183126
 H   -3.245003065838    1.403125272785    2.502594816874
 H   -1.496003065838    1.282125272785    2.660594816874
 H   -4.016003065838    2.572125272785    0.635594816874
 H   -0.659003065838    2.959125272785   -3.446405183126
 H   -3.715003065838    3.430125272785   -1.668405183126
 H   -2.429223065838   -0.130492727215    2.090110816874
