9
0 1 
 C   -0.106156182304   -0.318621609724    1.427483049377
 C    0.040843817696   -0.021621609724   -0.064516950623
 O    0.772843817696   -0.710621609724   -0.793516950623
 N   -0.657156182304    0.999378390276   -0.544516950623
 H    0.642843817696   -1.012621609724    1.736483049377
 H   -1.079156182304   -0.766621609724    1.610483049377
 H   -0.606156182304    1.174378390276   -1.537516950623
 H   -1.319156182304    1.497378390276    0.029483049377
 H    0.004453817696    0.551071390276    2.091863049377
