10
-1 1 
 C    0.883562218362   -0.404490073907   -0.504317827282
 C    1.264562218362   -1.422490073907    0.570682172718
 C   -0.381437781638    0.394509926093   -0.131317827282
 O   -0.851437781638    1.190509926093   -0.988317827282
 O   -0.882437781638    0.239509926093    1.011682172718
 H    1.706562218362    0.291509926093   -0.641317827282
 H    0.726562218362   -0.914490073907   -1.457317827282
 H    1.365562218362   -0.901490073907    1.523682172718
 H    2.206047218362   -1.929618573907    0.312952172718
 H    0.477494218362   -2.185186473907    0.664582172718
