24
0 1 
 C    0.507916628358    1.987622555252    0.423567934434
 C    1.464916628358    1.266622555252    1.349567934434
 C    1.200916628358    3.149622555252   -0.211432065566
 O    1.712916628358    4.009622555252    0.498567934434
 N    1.141916628358    3.255622555252   -1.534432065566
 H    0.122916628358    1.310622555252   -0.337432065566
 H   -0.340083371642    2.358622555252    0.999567934434
 H    0.897916628358    0.489622555252    1.856567934434
 H    1.816916628358    1.962622555252    2.112567934434
 H    1.577916628358    4.048622555252   -1.979432065566
 H    0.752916628358    2.489622555252   -2.079432065566
 H    2.324816928358    0.798944555252    0.847721934434
 C    0.581916628358   -3.893377444748   -0.052432065566
 C   -1.612083371642   -1.026377444748   -0.285432065566
 C   -0.581083371642   -2.949377444748   -0.053432065566
 C   -1.918083371642   -3.164377444748    0.175567934434
 N   -0.400083371642   -1.598377444748   -0.312432065566
 N   -2.544083371642   -1.933377444748    0.028567934434
 H   -1.813083371642    0.021622555252   -0.474432065566
 H   -3.542083371642   -1.742377444748    0.105567934434
 H   -2.401083371642   -4.095377444748    0.430567934434
 H    1.291916628358   -3.538377444748    0.694567934434
 H    1.072916628358   -3.839377444748   -1.025432065566
 H    0.327837628358   -4.939377444748    0.174139934434
