8
0 1 
 C   -0.687624562288   -0.062355793783    0.333103111919
 C    0.689375437712    0.058644206217   -0.337896888081
 H   -1.124624562288   -1.039355793783    0.123103111919
 H   -0.575624562288    0.050644206217    1.412103111919
 H   -1.359624562288    0.714644206217   -0.017896888081
 H    1.085375437712    1.043644206217   -0.095896888081
 H    0.574905437712   -0.027025793783   -1.428566888081
 H    1.378745437712   -0.698357793783    0.064233111919
