8
0 1 
 C   -0.104938836288   -0.174705555811   -0.737770362202
 C    0.108061163712    0.166294444189    0.740229637798
 H    0.188061163712   -1.201705555811   -0.931770362202
 H   -1.148938836288   -0.030705555811   -0.995770362202
 H    0.485061163712    0.490294444189   -1.370770362202
 H   -0.111938836288    1.227294444189    0.865229637798
 H    1.155894163712   -0.010016555811    1.024759637798
 H   -0.605315836288   -0.375011555811    1.379039637798
