7
-1 1 
 C    0.664615516284    1.131944297665    0.577510980053
 C   -0.030384483716   -0.071055702335   -0.031489019947
 O   -0.407384483716   -1.005055702335    0.716510980053
 O   -0.221384483716   -0.061055702335   -1.265489019947
 H   -0.043384483716    1.534944297665    1.291510980053
 H    0.868615516284    1.902944297665   -0.159489019947
 H    1.602108516284    0.850254297665    1.079267980053
