8
0 1 
 C   -0.261479114093    0.250257919176   -0.687043414420
 C    0.265520885907   -0.246742080824    0.684956585580
 H    0.471520885907    0.038257919176   -1.467043414420
 H   -1.203479114093   -0.243742080824   -0.925043414420
 H   -0.428479114093    1.327257919176   -0.641043414420
 H   -0.499479114093   -0.029742080824    1.428956585580
 H    1.215050885907    0.202957919176    1.010775585580
 H    0.396740885907   -1.336852080824    0.618245585580
