16
0 1 
 C   -1.364689163553   -1.480592026863    1.146668690170
 C   -2.073689163553   -0.159592026863    0.840668690170
 H   -1.420689163553   -1.714592026863    2.210668690170
 H   -1.844689163553   -2.284592026863    0.586668690170
 H   -0.318689163553   -1.415592026863    0.854668690170
 H   -1.999689163553    0.034407973137   -0.231331309830
 H   -1.598334163553    0.668397973137    1.386998690170
 H   -3.139522163553   -0.255502026863    1.095228690170
 C    0.998310836447    0.841407973137   -0.746331309830
 C    2.443310836447    0.802407973137   -1.231331309830
 H    0.960310836447    0.563407973137    0.305668690170
 H    0.577310836447    1.840407973137   -0.848331309830
 H    0.367310836447    0.166407973137   -1.329331309830
 H    2.435310836447    0.892407973137   -2.313331309830
 H    2.888840836447   -0.172272026863   -0.983331309830
 H    3.053910836447    1.633867973137   -0.849441309830
