11
0 1 
 C    0.508512070432   -0.197551253153    0.147018889465
 C   -0.408487929568   -0.933551253153   -0.831981110535
 C   -0.069487929568    1.117448746847    0.690018889465
 H    0.671512070432   -0.846551253153    1.004018889465
 H    1.472512070432   -0.002551253153   -0.324981110535
 H   -1.405487929568   -1.002551253153   -0.397981110535
 H    0.596512070432    1.495448746847    1.468018889465
 H   -0.076487929568    1.864448746847   -0.104981110535
 H   -0.034191929568   -1.949501253153   -1.026281110535
 H   -0.506300929568   -0.380003253153   -1.777501110535
 H   -1.081656929568    0.983833746847    1.099478889465
