7
-1 1 
 C   -1.017297733003   -0.868593072767   -0.551803742545
 C    0.068702266997    0.039406927233    0.020196257455
 O   -0.168297733003    0.545406927233    1.135196257455
 O    1.128702266997    0.282406927233   -0.609803742545
 H   -1.942297733003   -0.296593072767   -0.663803742545
 H   -1.223297733003   -1.648593072767    0.182196257455
 H   -0.781957733003   -1.319843072767   -1.526993742545
