23
0 1 
 C    2.629490390005   -1.939065218576    0.133494991505
 C    2.995490390005   -0.558065218576   -0.423505008495
 H    3.440490390005   -2.646065218576   -0.049505008495
 H    2.451490390005   -1.874065218576    1.207494991505
 H    1.721490390005   -2.301065218576   -0.351505008495
 H    2.167490390005    0.111934781424   -0.186505008495
 H    3.101280390005   -0.618845218576   -1.516705008495
 H    3.885020390005   -0.149825218576    0.078594991505
 C   -0.750509609995   -0.685065218576    1.489494991505
 C   -2.107509609995   -1.376065218576    1.639494991505
 C   -0.688509609995    0.288934781424    0.351494991505
 C   -0.533509609995    1.638934781424    0.361494991505
 C   -0.664509609995    0.980934781424   -1.733505008495
 N   -0.765509609995   -0.095065218576   -0.967505008495
 N   -0.519509609995    2.046934781424   -0.954505008495
 H   -0.503509609995   -0.162065218576    2.415494991505
 H    0.012490390005   -1.444065218576    1.322494991505
 H   -2.341509609995   -1.829065218576    0.674494991505
 H   -0.430509609995    2.262934781424    1.240494991505
 H   -0.831509609995    1.011934781424   -2.792505008495
 H   -0.414509609995    2.996934781424   -1.285505008495
 H   -2.885159609995   -0.651105218576    1.921794991505
 H   -2.001699609995   -2.187735218576    2.374294991505
