19
0 1 
 C    0.396753326429   -0.624691774278    2.417374710020
 C   -0.923246673571   -0.523691774278    3.174374710020
 C    0.265753326429   -0.271691774278    0.958374710020
 C   -0.125246673571   -1.229691774278    0.023374710020
 C    0.529753326429    1.023308225722    0.521374710020
 C   -0.265246673571   -0.897691774278   -1.320625289980
 C    0.400753326429    1.359308225722   -0.820625289980
 C    0.002753326429    0.403308225722   -1.740625289980
 O   -0.106246673571    0.754308225722   -3.054625289980
 H    1.135753326429    0.030308225722    2.879374710020
 H    0.770753326429   -1.645691774278    2.495374710020
 H   -1.626246673571   -1.203691774278    2.692374710020
 H   -0.334246673571   -2.239691774278    0.347374710020
 H    0.829753326429    1.776308225722    1.235374710020
 H   -0.576246673571   -1.646691774278   -2.034625289980
 H    0.609753326429    2.360308225722   -1.160625289980
 H   -0.391246673571    0.013308225722   -3.597625289980
 H   -1.301934673571    0.508820225722    3.151698710020
 H   -0.787922673571   -0.857247774278    4.213810710020
