30
0 1 
 C    3.614191777755   -0.405721593851    0.951973451789
 C    0.227191777755    0.801278406149   -1.450026548211
 C    0.666191777755   -0.509721593851   -1.463026548211
 C    0.889191777755    1.749278406149   -0.669026548211
 C    1.775191777755   -0.887721593851   -0.711026548211
 C    1.996191777755    1.347278406149    0.106973451789
 C    2.443191777755    0.028278406149    0.090973451789
 O   -0.877808222245    1.078278406149   -2.191026548211
 H    0.155191777755   -1.252721593851   -2.059026548211
 H   -1.065808222245    0.363278406149   -2.806026548211
 H    0.540191777755    2.772278406149   -0.651026548211
 H    2.110191777755   -1.916721593851   -0.737026548211
 H    2.501191777755    2.076278406149    0.727973451789
 H    3.459191777755   -1.443721593851    1.222973451789
 H    3.599191777755    0.182278406149    1.867973451789
 H    4.598332777755   -0.290279593851    0.474333451789
 C   -2.318808222245   -0.753721593851    0.877973451789
 C   -3.741808222245   -0.213721593851    1.009973451789
 C   -1.348808222245    0.112278406149    1.641973451789
 C   -2.310808222245   -2.114721593851    1.548973451789
 H   -2.027808222245   -0.843721593851   -0.168026548211
 H   -3.917808222245   -0.134721593851    2.077973451789
 H   -4.462808222245   -0.925721593851    0.609973451789
 H   -1.660808222245    0.211278406149    2.681973451789
 H   -0.360808222245   -0.342721593851    1.604973451789
 H   -1.266808222245    1.102278406149    1.200973451789
 H   -2.981808222245   -2.796721593851    1.033973451789
 H   -1.306808222245   -2.531721593851    1.498973451789
 H   -2.608808222245   -2.032721593851    2.592973451789
 H   -3.889065222245    0.775104406149    0.551129451789
