12
0 1 
 C    0.375559629349   -0.371202053557    0.926877473277
 C   -0.665440370651   -1.455202053557    1.204877473277
 C    0.134559629349    0.357797946443   -0.363122526723
 O   -0.862440370651    0.109797946443   -1.055122526723
 N    1.003559629349    1.297797946443   -0.665122526723
 H    0.356559629349    0.357797946443    1.736877473277
 H    1.371559629349   -0.815202053557    0.892877473277
 H   -1.650440370651   -0.993202053557    1.218877473277
 H    0.856559629349    1.840797946443   -1.502122526723
 H    1.783559629349    1.487797946443   -0.053122526723
 H   -0.444020370651   -1.908654053557    2.182297473277
 H   -0.680650370651   -2.257526053557    0.452517473277
