12
0 1 
 C    0.862528337069    0.802155516789    1.872590790386
 C    0.407528337069    0.783155516789   -0.682409209614
 C    0.282528337069    0.301155516789    0.581590790386
 C   -0.821471662931   -1.040844483211   -0.766409209614
 N   -0.289471662931   -0.072844483211   -1.506409209614
 N   -0.489471662931   -0.839844483211    0.505590790386
 H    0.970528337069    1.659155516789   -0.979409209614
 H   -0.366471662931   -0.002844483211   -2.514409209614
 H    0.094528337069    0.755155516789    2.644590790386
 H    1.103528337069    1.838155516789    1.713590790386
 H   -1.420471662931   -1.863844483211   -1.142409209614
 H    1.736028337069    0.226765516789    2.213080790386
