12
0 1 
 C    1.892921157390   -1.099600293183   -0.282598246982
 C   -1.257078842610    0.331399706817    0.808401753018
 C    0.037921157390    0.583399706817   -0.950598246982
 C    0.617921157390   -0.328600293183   -0.129598246982
 N   -1.123078842610    0.983399706817   -0.335598246982
 N   -0.212078842610   -0.476600293183    0.963401753018
 H   -1.732078842610    1.736399706817   -0.660598246982
 H   -2.139078842610    0.353399706817    1.431401753018
 H    0.428921157390    0.940399706817   -1.895598246982
 H    1.946921157390   -1.468600293183   -1.307598246982
 H    1.864921157390   -1.970600293183    0.374401753018
 H    2.801675157390   -0.519667293183   -0.063868246982
