16
0 1 
 C   -1.014858496293    1.337723052137   -1.260254536278
 C   -0.846858496293    0.668723052137   -2.619254536278
 H   -1.898858496293    1.974723052137   -1.275254536278
 H   -1.131858496293    0.574723052137   -0.491254536278
 H   -0.135858496293    1.938723052137   -1.035254536278
 H    0.039141503707    0.033723052137   -2.596254536278
 H   -0.723748496293    1.421023052137   -3.412314536278
 H   -1.732545496293    0.051823052137   -2.831284536278
 C    0.303141503707   -0.585276947863    1.805745463722
 C    1.556141503707   -1.420276947863    2.076745463722
 H    0.567141503707    0.294723052137    1.217745463722
 H   -0.416858496293   -1.182276947863    1.247745463722
 H   -0.136858496293   -0.270276947863    2.750745463722
 H    1.963141503707   -1.687276947863    1.102745463722
 H    2.295751503707   -0.827576947863    2.635035463722
 H    1.340391503707   -2.332676947863    2.652095463722
