30
0 1 
 C    0.541135142564   -0.371110391835   -4.096604824961
 C   -2.274864857436   -0.650110391835   -0.844604824961
 C   -1.987864857436    0.567889608165   -1.444604824961
 C   -1.632864857436   -1.787110391835   -1.304604824961
 C   -1.053864857436    0.655889608165   -2.463604824961
 C   -0.692864857436   -1.680110391835   -2.331604824961
 C   -0.395864857436   -0.459110391835   -2.918604824961
 H   -3.013864857436   -0.719110391835   -0.060604824961
 H   -2.496864857436    1.462889608165   -1.117604824961
 H   -1.871864857436   -2.750110391835   -0.879604824961
 H   -0.880864857436    1.603889608165   -2.937604824961
 H   -0.214864857436   -2.576110391835   -2.699604824961
 H    0.010135142564    0.147889608165   -4.896604824961
 H    0.768135142564   -1.374110391835   -4.460604824961
 H    1.480785142564    0.164098608165   -3.895094824961
 C    0.137135142564   -1.749110391835    2.198395175039
 C    0.578135142564    0.481889608165    1.129395175039
 C    0.693135142564   -0.345110391835    2.230395175039
 C    1.095135142564    1.767889608165    1.138395175039
 C    1.349135142564    0.143889608165    3.353395175039
 C    1.717135142564    2.256889608165    2.258395175039
 C    1.847135142564    1.444889608165    3.368395175039
 H    0.103135142564    0.116889608165    0.232395175039
 H    1.001135142564    2.389889608165    0.258395175039
 H    0.929135142564   -2.447110391835    2.471395175039
 H   -0.164864857436   -1.978110391835    1.176395175039
 H    1.503135142564   -0.488110391835    4.215395175039
 H    2.135135142564    3.252889608165    2.263395175039
 H    2.397135142564    1.792889608165    4.228395175039
 H   -0.730844857436   -1.902156491835    2.856565175039
