30
0 1 
 C    3.078237103159   -0.257636058544    1.718426012001
 C    0.187237103159   -0.852636058544   -0.518573987999
 C    1.414237103159   -0.198636058544   -0.237573987999
 C    1.833237103159   -0.642636058544    1.048426012001
 C    0.931237103159   -1.575636058544    1.448426012001
 C   -0.534762896841   -0.628636058544   -1.683573987999
 C   -0.003762896841    0.263363941456   -2.599573987999
 C    1.906237103159    0.740363941456   -1.145573987999
 C    1.217237103159    0.943363941456   -2.340573987999
 N   -0.091762896841   -1.653636058544    0.557426012001
 H   -0.899762896841   -2.256636058544    0.665426012001
 H   -1.469762896841   -1.135636058544   -1.871573987999
 H    0.991237103159   -2.169636058544    2.350426012001
 H   -0.532762896841    0.451363941456   -3.524573987999
 H    2.687237103159    1.411363941456   -0.836573987999
 H    3.609237103159    0.458363941456    1.090426012001
 H    3.689237103159   -1.148636058544    1.735426012001
 H    1.574237103159    1.677363941456   -3.050573987999
 H    3.012689103159    0.172793941456    2.728586012001
 C   -3.041762896841    0.626363941456    0.855426012001
 C   -3.759762896841    1.782363941456    0.161426012001
 C   -2.188762896841    1.106363941456    2.019426012001
 H   -3.791762896841   -0.085636058544    1.179426012001
 H   -2.389762896841    0.138363941456    0.136426012001
 H   -3.038762896841    2.577363941456   -0.014573987999
 H   -2.827762896841    1.415363941456    2.843426012001
 H   -1.534762896841    0.272363941456    2.262426012001
 H   -4.552770896841    2.178493941456    0.812746012001
 H   -4.106443896841    1.526993941456   -0.850793987999
 H   -1.513923096841    1.937493941456    1.766816012001
