8
0 1 
 C    0.209991917392    0.518958106448   -0.512012926494
 C   -0.204008082608   -0.519041893552    0.514987073506
 H    1.110991917392    1.025958106448   -0.206012926494
 H    0.360991917392    0.045958106448   -1.483012926494
 H   -0.585008082608    1.259958106448   -0.605012926494
 H   -1.177008082608   -0.892041893552    0.221987073506
 H   -0.278148082608   -0.072048893552    1.517334073506
 H    0.496931917392   -1.366785893552    0.519304973506
