24
0 1 
 C   -1.041362634369    1.119588050306   -2.680493160881
 C   -0.316362634369   -0.295411949694    0.777506839119
 C   -0.431362634369   -1.661411949694    0.548506839119
 C   -0.515362634369    0.598588050306   -0.268493160881
 C   -0.830362634369    0.142588050306   -1.547493160881
 C   -0.743362634369   -2.131411949694   -0.722493160881
 C   -0.941362634369   -1.229411949694   -1.762493160881
 O   -0.237362634369   -2.539411949694    1.572506839119
 H   -0.073362634369    0.060588050306    1.767506839119
 H   -0.424362634369    1.660588050306   -0.083493160881
 H   -0.830362634369   -3.193411949694   -0.901493160881
 H   -0.359362634369   -3.454411949694    1.297506839119
 H   -0.609362634369    0.684588050306   -3.577493160881
 H   -0.508362634369    2.044588050306   -2.456493160881
 H   -1.195362634369   -1.597411949694   -2.745493160881
 H   -2.094882634369    1.346521050306   -2.900962960881
 C    2.110637365631    2.199588050306    2.175506839119
 C    2.404637365631    3.431588050306    1.314506839119
 H    2.817637365631    2.138588050306    3.002506839119
 H    1.096637365631    2.233588050306    2.570506839119
 H    2.173637365631    1.297588050306    1.574506839119
 H    1.707637365631    3.430588050306    0.473506839119
 H    3.432347365631    3.399315050306    0.923646839119
 H    2.257457365631    4.362078050306    1.882420839119
