12
0 1 
 C    0.493967161631    0.264125491417   -0.921283413205
 C    1.172967161631   -1.073874508583   -1.263283413205
 C   -0.321032838369    0.219125491417    0.361716586795
 O   -0.860032838369   -0.812874508583    0.741716586795
 N   -0.462032838369    1.363125491417    1.009716586795
 H    1.268967161631    1.024125491417   -0.808283413205
 H   -0.164032838369    0.573125491417   -1.734283413205
 H    1.748967161631   -1.413874508583   -0.402283413205
 H   -1.041032838369    1.370125491417    1.844716586795
 H   -0.046032838369    2.212125491417    0.657716586795
 H    1.839944971631   -0.925154508583   -2.125270413205
 H    0.436792161631   -1.846854508583   -1.528883413205
