9
0 1 
 C   -0.490890469801   -0.073127974526    1.369192640330
 C    0.067109530199    0.038872025474   -0.040807359670
 O    1.074109530199    0.699872025474   -0.305807359670
 N   -0.599890469801   -0.621127974526   -0.967807359670
 H   -0.264890469801   -0.547127974526   -1.921807359670
 H   -1.419890469801   -1.170127974526   -0.721807359670
 H   -0.798890469801   -1.105127974526    1.547192640330
 H   -1.398890469801    0.519872025474    1.426192640330
 H    0.216639530199    0.233084325474    2.153812640330
