6
0 1 
 C   -0.102448647732   -0.639394057999    0.328541003616
 O    0.114551352268    0.627605942001   -0.263458996384
 H   -0.142448647732    0.583605942001   -1.191458996384
 H    0.257551352268   -0.623394057999    1.358541003616
 H    0.455551352268   -1.398394057999   -0.220458996384
 H   -1.168828647732   -0.909224057999    0.322781003616
