29
1 1 
 C   -2.964846612939   -1.109030303776    0.160780859260
 C   -2.110846612939    0.901969696224    1.393780859260
 N   -2.779846612939    0.320969696224    0.433780859260
 N   -1.533846612939    0.112969696224    2.304780859260
 N   -2.027846612939    2.222969696224    1.462780859260
 H   -3.226846612939    0.946969696224   -0.220219140740
 H   -1.620846612939   -0.885030303776    2.221780859260
 H   -1.038846612939    0.511969696224    3.085780859260
 H   -2.481846612939    2.799969696224    0.772780859260
 H   -1.534846612939    2.658969696224    2.225780859260
 H   -3.917846612939   -1.244030303776   -0.356219140740
 H   -3.006846612939   -1.688030303776    1.084780859260
 H   -2.156934612939   -1.483570303776   -0.484979140740
 C    0.333153387061    0.260969696224   -3.410219140740
 C    0.627153387061    0.689969696224   -0.919219140740
 C    0.991153387061   -0.018030303776   -2.078219140740
 C    1.169153387061    0.387969696224    0.321780859260
 C    1.941153387061   -1.040030303776   -1.934219140740
 C    2.121153387061   -0.623030303776    0.433780859260
 C    2.521153387061   -1.338030303776   -0.699219140740
 O    2.644153387061   -0.891030303776    1.656780859260
 H   -0.112846612939    1.475969696224   -0.994219140740
 H    0.878153387061    0.943969696224    1.199780859260
 H   -0.741846612939    0.297969696224   -3.237219140740
 H    0.493153387061   -0.597030303776   -4.051219140740
 H    2.242153387061   -1.606030303776   -2.807219140740
 H    3.273153387061   -2.108030303776   -0.624219140740
 H    3.393153387061   -1.499030303776    1.627780859260
 H    0.597396387061    1.171699696224   -3.967659140740
