16
-1 1 
 C    0.094077751231    0.117267779888    2.484160460963
 C    1.338077751231   -0.547732220112    1.923160460963
 O    2.222077751231   -0.969732220112    2.667160460963
 N    1.422077751231   -0.647732220112    0.605160460963
 H    2.228077751231   -1.099732220112    0.207160460963
 H    0.684077751231   -0.298732220112   -0.007839539037
 H   -0.387922248769   -0.586732220112    3.162160460963
 H   -0.615922248769    0.328267779888    1.684160460963
 H    0.322857751231    1.038108079888    3.040680460963
 C   -1.521922248769    1.445267779888   -2.970839539037
 C   -1.247922248769    0.465267779888   -1.839839539037
 O   -0.200922248769   -0.222732220112   -1.860839539037
 O   -2.098922248769    0.370267779888   -0.927839539037
 H   -2.003922248769    2.338267779888   -2.573839539037
 H   -2.213922248769    0.976267779888   -3.672839539037
 H   -0.610322248769    1.730007979888   -3.516649539037
