9
0 1 
 C    0.247453208890    0.080701839181   -1.426676461827
 C   -0.043546791110    0.049701839181    0.061323538173
 O   -0.515546791110    1.004701839181    0.650323538173
 N    0.285453208890   -1.062298160819    0.679323538173
 H   -0.462546791110   -0.580298160819   -1.916676461827
 H    1.251453208890   -0.309298160819   -1.599676461827
 H    0.130453208890   -1.120298160819    1.673323538173
 H    0.701453208890   -1.828298160819    0.172323538173
 H    0.167223208890    1.100093839181   -1.832136461827
