8
0 1 
 C    0.636001341667    0.384539395165    0.188386845756
 C   -0.635998658333   -0.381460604835   -0.197613154244
 H    0.988001341667    1.009539395165   -0.633613154244
 H    0.431001341667    1.017539395165    1.053386845756
 H    1.431001341667   -0.297460604835    0.482386845756
 H   -0.871998658333   -1.086460604835    0.590386845756
 H   -0.467758658333   -0.962375604835   -1.116436154244
 H   -1.510278658333    0.282559395165   -0.266255154244
