15
0 1 
 C    0.752417777333   -1.413776678963    0.820129836759
 C    1.858417777333   -0.895776678963    1.728129836759
 C    0.057417777333   -0.334776678963    0.051129836759
 C    0.504417777333    0.883223321037   -0.349870163241
 C   -1.580582222667    0.675223321037   -1.010870163241
 N   -1.255582222667   -0.439776678963   -0.362870163241
 N   -0.534582222667    1.494223321037   -1.013870163241
 H    1.156417777333   -2.148776678963    0.123129836759
 H    0.001417777333   -1.905776678963    1.440129836759
 H    1.462417777333   -0.034776678963    2.268129836759
 H    1.485417777333    1.300223321037   -0.177870163241
 H   -2.546582222667    0.890223321037   -1.455870163241
 H   -0.518582222667    2.417223321037   -1.434870163241
 H    2.736217777333   -0.589516678963    1.140199836759
 H    2.139717777333   -1.650246678963    2.477549836759
