8
0 1 
 C    0.485589678946   -0.013336455604    0.596654217939
 C   -0.487410321054    0.018663544396   -0.603345782061
 H    0.357589678946    0.868663544396    1.224654217939
 H    0.276589678946   -0.895336455604    1.199654217939
 H    1.526589678946   -0.090336455604    0.287654217939
 H   -0.428410321054   -0.934336455604   -1.129345782061
 H   -0.207150321054    0.826083544396   -1.295825782061
 H   -1.503530321054    0.161833544396   -0.207115782061
