8
0 1 
 C    0.124420914477    0.612758287199    0.438289693699
 C   -0.123579085523   -0.615241712801   -0.438710306301
 H    0.991420914477    1.169758287199    0.083289693699
 H   -0.747579085523    1.266758287199    0.401289693699
 H    0.305420914477    0.304758287199    1.466289693699
 H   -1.019579085523   -1.135241712801   -0.091710306301
 H    0.744669914477   -1.287841712801   -0.377430306301
 H   -0.284377085523   -0.288621712801   -1.476720306301
