16
0 1 
 C   -1.244320417725   -0.455481056305   -2.610955636479
 C   -1.200320417725    0.634518943695   -0.348955636479
 C   -0.610320417725   -0.222481056305   -1.271955636479
 C   -0.614320417725    0.861518943695    0.896044363521
 C    0.588679582275   -0.844481056305   -0.936955636479
 C    0.569679582275    0.217518943695    1.231044363521
 C    1.174679582275   -0.634481056305    0.310044363521
 O    1.143679582275    0.430518943695    2.452044363521
 H   -2.119320417725    1.144518943695   -0.598955636479
 H   -1.078320417725    1.525518943695    1.610044363521
 H   -0.446320417725   -0.480481056305   -3.347955636479
 H   -1.888320417725    0.387518943695   -2.861955636479
 H    1.078679582275   -1.495481056305   -1.648955636479
 H    2.103679582275   -1.130481056305    0.557044363521
 H    1.927679582275   -0.113481056305    2.582044363521
 H   -1.818366417725   -1.391181056305   -2.681275636479
