9
0 1 
 C   -1.034348900990    0.834327344189   -0.622285548536
 C    0.075651099010   -0.025672655811   -0.014285548536
 O    1.254651099010    0.109327344189   -0.342285548536
 N   -0.276348900990   -0.870672655811    0.922714451464
 H    0.452651099010   -1.432672655811    1.343714451464
 H   -1.226348900990   -0.950672655811    1.213714451464
 H   -2.014348900990    0.410327344189   -0.422285548536
 H   -0.894348900990    0.843327344189   -1.705285548536
 H   -0.975088900990    1.863504344189   -0.238512548536
