9
0 1 
 C   -0.566139001610   -1.128335544090    0.733441666227
 C   -0.006139001610    0.034664455910   -0.073558333773
 O   -0.344139001610    0.222664455910   -1.239558333773
 N    0.856860998390    0.826664455910    0.541441666227
 H   -1.542139001610   -0.826335544090    1.115441666227
 H    0.088860998390   -1.329335544090    1.583441666227
 H    1.257860998390    1.588664455910    0.009441666227
 H    1.241860998390    0.610664455910    1.454441666227
 H   -0.676219001610   -2.041315544090    0.129825666227
