19
0 1 
 C    2.238082467580    0.083049763184   -1.135375128718
 C    3.237082467580   -0.988950236816   -0.693375128718
 C    0.873082467580    0.055049763184   -0.480375128718
 C   -0.148917532420   -0.717950236816   -1.004375128718
 C    0.582082467580    0.913049763184    0.573624871282
 C   -1.421917532420   -0.659950236816   -0.425375128718
 C   -0.663917532420    0.965049763184    1.164624871282
 C   -1.663917532420    0.174049763184    0.667624871282
 O   -2.902917532420    0.284049763184    1.243624871282
 H    2.667082467580    1.067049763184   -0.945375128718
 H    2.099082467580    0.009049763184   -2.211375128718
 H    2.900082467580   -1.953950236816   -1.066375128718
 H    0.035082467580   -1.366950236816   -1.849375128718
 H    1.370082467580    1.543049763184    0.962624871282
 H   -2.222917532420   -1.262950236816   -0.827375128718
 H   -0.860917532420    1.626049763184    1.995624871282
 H   -3.544917532420   -0.299950236816    0.825624871282
 H    3.323312467580   -1.015945236816    0.402904871282
 H    4.207982467580   -0.750760236816   -1.152318128718
