20
0 1 
 C    2.130709082106   -2.420835354463    2.043109965935
 C    1.586709082106   -1.405835354463    1.045109965935
 O    0.421709082106   -0.980835354463    1.213109965935
 O    2.303709082106   -1.029835354463    0.094109965935
 H    1.553709082106   -3.344835354463    1.972109965935
 H    1.994709082106   -2.030835354463    3.054109965935
 H    3.199179082106   -2.636397354463    1.895090965935
 C   -0.190290917894    2.682164645537   -0.219890034065
 C   -1.547290917894    0.785164645537   -1.031890034065
 N   -1.783290917894   -0.510835354463   -1.049890034065
 N   -0.548290917894    1.264164645537   -0.308890034065
 N   -2.310290917894    1.597164645537   -1.738890034065
 H   -1.203290917894   -1.100835354463   -0.465890034065
 H   -2.553290917894   -0.902835354463   -1.565890034065
 H   -0.009290917894    0.586164645537    0.229109965935
 H   -2.149290917894    2.610164645537   -1.706890034065
 H   -2.899290917894    1.221164645537   -2.457890034065
 H    0.377709082106    2.831164645537    0.700109965935
 H   -1.080290917894    3.309164645537   -0.156890034065
 H    0.437309082106    2.988749445537   -1.069671034065
