16
0 1 
 C   -0.718990060172   -0.473271802089   -1.930645710314
 C   -0.170990060172   -1.896271802089   -1.965645710314
 H   -0.009990060172    0.235728197911   -2.356645710314
 H   -1.622990060172   -0.432271802089   -2.539645710314
 H   -0.974990060172   -0.190271802089   -0.910645710314
 H    0.043009939828   -2.111271802089   -2.989645710314
 H    0.724849939828   -1.991661802089   -1.334472710314
 H   -0.937530060172   -2.608581802089   -1.626486710314
 C    0.175009939828    1.031728197911    1.256354289686
 C    0.719009939828    1.337728197911    2.643354289686
 H    0.189009939828    1.936728197911    0.657354289686
 H    0.816009939828    0.291728197911    0.786354289686
 H   -0.840990060172    0.636728197911    1.324354289686
 H    1.659009939828    1.871728197911    2.544354289686
 H    0.006769939828    1.957878197911    3.207388289686
 H    0.899729939828    0.404578197911    3.197049289686
