8
0 1 
 C   -0.522543587874    0.518285400365    0.187057037150
 C    0.519456412126   -0.518714599635   -0.189942962850
 H   -1.495543587874    0.040285400365    0.282057037150
 H   -0.266543587874    0.967285400365    1.147057037150
 H   -0.565543587874    1.301285400365   -0.570942962850
 H    0.431456412126   -1.351714599635    0.497057037150
 H    0.405226412126   -0.862113599635   -1.228705962850
 H    1.527706412126   -0.089917599635   -0.092159962850
