9
0 1 
 C   -0.602484692200   -0.575207410219    0.129729080738
 C   -1.462484692200   -0.094207410219   -1.051270919262
 S    0.939515307800    0.331792589781    0.396729080738
 H   -1.198484692200   -0.525207410219    1.043729080738
 H   -0.356484692200   -1.627207410219   -0.033270919262
 H   -2.343484692200   -0.732207410219   -1.119270919262
 H    1.418515307800   -0.433207410219    1.386729080738
 H   -0.911054692200   -0.168537410219   -2.000160919262
 H   -1.826794692200    0.931242589781   -0.890880919262
