8
0 1 
 C    0.224662840021   -0.096025368999    0.718567664115
 C   -0.219337159979    0.093974631001   -0.722432335885
 H    1.104662840021    0.513974631001    0.921567664115
 H   -0.575337159979    0.221974631001    1.388567664115
 H    0.467662840021   -1.137025368999    0.917567664115
 H   -0.238337159979    1.157974631001   -0.959432335885
 H   -1.238337159979   -0.288025368999   -0.781432335885
 H    0.416273840021   -0.444455368999   -1.440822335885
