18
0 1 
 C    1.219458198785    0.903214039461    0.032858282711
 C    2.505458198785    0.093214039461   -0.010141717289
 C    0.755458198785   -1.405785960539   -0.449141717289
 C   -1.630541801215    1.430214039461    0.506858282711
 C   -1.143541801215    0.043214039461    0.090858282711
 O   -1.948541801215   -0.877785960539   -0.083141717289
 N    0.175458198785   -0.121785960539   -0.069141717289
 H    1.148458198785    1.444214039461    0.976858282711
 H    1.165458198785    1.581214039461   -0.819141717289
 H    2.763458198785   -0.287785960539    0.979858282711
 H    3.324458198785    0.671214039461   -0.436141717289
 H    0.186458198785   -1.876785960539   -1.252141717289
 H   -0.829541801215    2.154214039461    0.382858282711
 H    2.239868198785   -0.726228960539   -0.694231717289
 H    1.758548198785   -1.131688960539   -0.807851717289
 H    0.797378198785   -2.070728960539    0.426128282711
 H   -2.489381801215    1.770724039461   -0.090171717289
 H   -1.894781801215    1.425174039461    1.574638282711
