15
0 1 
 C    0.397003409323    1.607077453979   -1.819015292234
 C    0.997003409323   -0.828922546021    1.050984707766
 C    1.236003409323    0.109077453979    0.046984707766
 C   -0.300996590677   -1.247922546021    1.355984707766
 C    0.154003409323    0.644077453979   -0.681015292234
 C   -1.387996590677   -0.711922546021    0.650984707766
 C   -1.144996590677    0.232077453979   -0.371015292234
 H    1.831003409323   -1.240922546021    1.604984707766
 H    2.250003409323    0.411077453979   -0.176015292234
 H   -0.481996590677   -1.991922546021    2.110984707766
 H   -2.396996590677   -1.032922546021    0.871984707766
 H    1.170003409323    2.288077453979   -1.518015292234
 H   -0.509996590677    2.184077453979   -2.006015292234
 H   -1.982996590677    0.623077453979   -0.932015292234
 H    0.716033409323    1.098647453979   -2.740816292234
