8
0 1 
 C   -0.554131957759   -0.161409197876    0.494326545443
 C    0.558868042241    0.156590802124   -0.490673454557
 H   -0.545131957759    0.539590802124    1.328326545443
 H   -1.516131957759   -0.064409197876   -0.008673454557
 H   -0.450131957759   -1.181409197876    0.862326545443
 H    0.457868042241    1.203590802124   -0.759673454557
 H    1.552008042241   -0.013476197876   -0.049359454557
 H    0.445128042241   -0.426515197876   -1.416443454557
