19
0 1 
 C    0.407880109403   -0.627336752000   -2.904370245217
 C   -0.623119890597    0.447663248000    0.583629754783
 C    0.288880109403   -0.202336752000   -0.292370245217
 C   -0.214119890597   -0.051336752000   -1.629370245217
 C   -1.376119890597    0.659663248000   -1.519370245217
 C   -0.441119890597    0.503663248000    1.955629754783
 C    0.683880109403   -0.119336752000    2.478629754783
 C    1.423880109403   -0.823336752000    0.257629754783
 C    1.607880109403   -0.782336752000    1.641629754783
 N   -1.625119890597    0.960663248000   -0.194370245217
 H   -2.421119890597    1.481663248000    0.156629754783
 H   -1.169119890597    1.019663248000    2.569629754783
 H   -1.950119890597    0.897663248000   -2.410370245217
 H    0.848880109403   -0.093336752000    3.546629754783
 H    2.157880109403   -1.330336752000   -0.357370245217
 H    1.488880109403   -0.700336752000   -2.740370245217
 H    0.228880109403    0.089663248000   -3.706370245217
 H    2.475880109403   -1.271336752000    2.057629754783
 H   -0.011319890597   -1.593436752000   -3.222140245217
