16
0 1 
 C   -1.279106259216    2.131038443619   -1.590286075613
 C   -0.616106259216    1.019038443619   -0.802286075613
 C    0.724893740784    1.146038443619   -0.376286075613
 C   -1.341106259216   -0.126961556381   -0.445286075613
 C    1.346893740784    0.157038443619    0.412713924387
 C   -0.727106259216   -1.118961556381    0.333713924387
 C    0.600893740784   -0.979961556381    0.761713924387
 O    1.111893740784   -2.010961556381    1.513713924387
 H   -2.094106259216    1.716038443619   -2.187286075613
 H   -0.543106259216    2.577038443619   -2.262286075613
 H    1.274893740784    2.031038443619   -0.667286075613
 H   -2.370106259216   -0.248961556381   -0.765286075613
 H    2.369893740784    0.254038443619    0.755713924387
 H   -1.275106259216   -2.008961556381    0.614713924387
 H    2.027893740784   -1.879961556381    1.775713924387
 H   -1.668151259216    2.955438443619   -0.974656075613
