8
0 1 
 C   -0.254517687019   -0.230788793820   -0.680547692907
 C    0.258482312981    0.230211206180    0.680452307093
 H   -0.364517687019   -1.313788793820   -0.710547692907
 H   -1.233517687019    0.210211206180   -0.841547692907
 H    0.426482312981    0.087211206180   -1.470547692907
 H   -0.438517687019   -0.108788793820    1.447452307093
 H    1.252962312981   -0.196818793820    0.877044607093
 H    0.309902312981    1.328851206180    0.699281907093
