12
0 1 
 C    0.164945970526    0.325053892725    0.049687482801
 C   -1.288054029474    0.444053892725    0.537687482801
 C    0.939945970526   -0.701946107275    0.878687482801
 O    0.191945970526   -0.079946107275   -1.320312517199
 H    0.656945970526    1.294053892725    0.136687482801
 H   -1.722054029474   -0.554946107275    0.468687482801
 H    0.349945970526   -1.610946107275    0.991687482801
 H    1.879945970526   -0.948946107275    0.386687482801
 H    1.156945970526   -0.294946107275    1.864687482801
 H    0.041945970526    0.721053892725   -1.847312517199
 H   -1.881054029474    1.118954892725   -0.097022517199
 H   -1.348064029474    0.744841892725    1.594060982801
