8
0 1 
 C    0.679898340930   -0.076033240735   -0.346351532119
 C   -0.679101659070    0.069966759265    0.354648467881
 H    1.112898340930   -1.051033240735   -0.147351532119
 H    0.537898340930    0.017966759265   -1.423351532119
 H    1.368898340930    0.699966759265   -0.018351532119
 H   -1.145101659070    0.969966759265   -0.046351532119
 H   -0.553638659070    0.214069759265    1.437927467881
 H   -1.330440659070   -0.778704240735    0.098688467881
