8
0 1 
 C   -0.627669262784    0.417120979075   -0.134112716330
 C    0.625330737216   -0.417879020925    0.136887283670
 H   -0.363669262784    1.297120979075   -0.722112716330
 H   -1.347669262784   -0.179879020925   -0.692112716330
 H   -1.067669262784    0.732120979075    0.810887283670
 H    1.032330737216   -0.684879020925   -0.837112716330
 H    1.364940737216    0.174820979075    0.695177283670
 H    0.409580737216   -1.330279020925    0.712237283670
