19
0 1 
 C    0.428658224084    0.544716574082   -2.193011864996
 C    0.380658224084    1.116716574082   -3.609011864996
 H   -0.270341775916    1.082716574082   -1.553011864996
 H    0.122658224084   -0.496283425918   -2.215011864996
 H    1.436658224084    0.613716574082   -1.783011864996
 H    1.258658224084    0.774716574082   -4.157011864996
 H    0.358538224084    2.216376574082   -3.592598864996
 H   -0.514841775916    0.734916574082   -4.121167764996
 C   -0.299341775916   -0.599283425918    1.410988135004
 C    0.219658224084   -1.734283425918    2.298988135004
 C   -0.738341775916    0.638716574082    2.188988135004
 H    0.467658224084   -0.328283425918    0.683988135004
 H   -1.167341775916   -0.964283425918    0.854988135004
 H   -0.479341775916   -1.873283425918    3.127988135004
 H   -1.545341775916    0.361716574082    2.868988135004
 H    0.094658224084    1.011716574082    2.781988135004
 H    1.213558224084   -1.488813425918    2.701354135004
 H    0.221098224084   -2.678473425918    1.734634135004
 H   -1.092581775916    1.431436574082    1.513629135004
