8
0 1 
 C   -0.274966028030   -0.663593591829    0.237771720172
 C    0.274033971970    0.667406408171   -0.243228279828
 H   -0.824966028030   -1.155593591829   -0.565228279828
 H    0.546033971970   -1.305593591829    0.556771720172
 H   -0.945966028030   -0.495593591829    1.079771720172
 H    0.778033971970    1.144406408171    0.600771720172
 H   -0.555607028030    1.308082408171   -0.576738279828
 H    1.013568971970    0.458893408171   -1.030378279828
