16
0 1 
 C   -0.690824417952   -0.973049711167   -1.172490898714
 C   -0.938824417952   -2.201049711167   -2.049490898714
 H    0.176175582048   -0.416049711167   -1.527490898714
 H   -1.562824417952   -0.319049711167   -1.209490898714
 H   -0.509824417952   -1.281049711167   -0.144490898714
 H   -1.834824417952   -2.721049711167   -1.702490898714
 H   -0.070575417952   -2.873649711167   -1.988210898714
 H   -1.099622417952   -1.874429711167   -3.087500898714
 C    0.164175582048    1.430950288833    1.248509101286
 C    1.463175582048    1.747950288833    1.977509101286
 H   -0.638824417952    2.094950288833    1.571509101286
 H    0.342175582048    1.540950288833    0.183509101286
 H   -0.110824417952    0.394950288833    1.444509101286
 H    2.262175582048    1.216950288833    1.465509101286
 H    1.390165582048    1.355270288833    3.002439101286
 H    1.683985582048    2.825040288833    1.944139101286
