19
0 1 
 C   -0.323456881292   -2.087860041055   -0.028898469692
 C   -0.647456881292   -3.508860041055    0.435101530308
 H    0.616543118708   -1.752860041055    0.414101530308
 H   -0.225456881292   -2.057860041055   -1.112898469692
 H   -1.130456881292   -1.409860041055    0.246101530308
 H   -1.651456881292   -3.742860041055    0.102101530308
 H   -0.637432881292   -3.581170041055    1.532676530308
 H    0.043985118708   -4.236020041055   -0.015621469692
 C    0.357543118708    1.349139958945   -0.216898469692
 C   -0.861456881292    2.193139958945   -0.615898469692
 C    1.499543118708    2.147139958945    0.415101530308
 H    0.025543118708    0.598139958945    0.499101530308
 H    0.763543118708    0.835139958945   -1.089898469692
 H   -0.516456881292    3.034139958945   -1.217898469692
 H    1.119543118708    2.674139958945    1.289101530308
 H   -1.374377881292    2.572029958945    0.280402530308
 H   -1.528105881292    1.627279958945   -1.283267469692
 H    2.270417118708    1.443839958945    0.763120530308
 H    1.929885118708    2.892159958945   -0.270285469692
