19
0 1 
 C   -1.095708460876    0.811294377601   -1.379599160103
 C   -1.606708460876    1.910294377601   -2.355599160103
 H   -0.731708460876   -0.061705622399   -1.918599160103
 H   -0.282708460876    1.243294377601   -0.802599160103
 H   -1.903708460876    0.516294377601   -0.708599160103
 H   -2.087708460876    2.688294377601   -1.763599160103
 H   -2.321818460876    1.553094377601   -3.111269160103
 H   -0.751578460876    2.376864377601   -2.866539160103
 C    0.875291539124   -0.393705622399    1.451400839897
 C    1.877291539124   -0.829705622399    0.369400839897
 C    0.004291539124   -1.538705622399    2.006400839897
 H    1.431291539124    0.043294377601    2.283400839897
 H    0.222291539124    0.381294377601    1.063400839897
 H    1.328291539124   -1.289705622399   -0.454599160103
 H    0.643291539124   -2.257705622399    2.517400839897
 H    2.601111539124   -1.553525622399    0.772100839897
 H    2.413821539124    0.037384377601   -0.043259160103
 H   -0.697848460876   -1.131525622399    2.748830839897
 H   -0.511438460876   -2.063085622399    1.188450839897
