8
0 1 
 C   -0.392671717072    0.567450145579    0.257808354363
 C    0.389328282928   -0.569549854421   -0.256191645637
 H   -0.634671717072    0.415450145579    1.308808354363
 H    0.190328282928    1.484450145579    0.159808354363
 H   -1.316671717072    0.675450145579   -0.309191645637
 H    0.896328282928   -0.259549854421   -1.170191645637
 H   -0.255411717072   -1.431729854421   -0.481931645637
 H    1.159908282928   -0.859069854421    0.473448354363
