27
0 1 
 C   -0.348820600661    0.473332712234    4.005246602908
 C    0.950179399339   -0.223667287766    4.351246602908
 H   -0.513820600661    1.325332712234    4.665246602908
 H   -0.298820600661    0.842332712234    2.980246602908
 H   -1.183820600661   -0.221667287766    4.087246602908
 H    1.769179399339    0.489332712234    4.285246602908
 H    1.121179399339   -0.986667287766    3.612246602908
 H    0.957389399339   -0.714437287766    5.335666602908
 C    2.614179399339    0.313332712234    0.232246602908
 C    0.519179399339   -0.995667287766    0.861246602908
 C    1.227179399339   -0.193667287766    0.035246602908
 C   -0.898820600661   -0.497667287766   -0.794753397092
 C    0.330179399339    0.167332712234   -1.018753397092
 C   -1.984820600661   -0.347667287766   -1.651753397092
 C    0.459179399339    0.968332712234   -2.148753397092
 C   -1.821820600661    0.449332712234   -2.762753397092
 C   -0.615820600661    1.089332712234   -3.013753397092
 N   -0.756820600661   -1.187667287766    0.385246602908
 H    0.906179399339   -1.473667287766    1.741246602908
 H   -1.518820600661   -1.520667287766    0.953246602908
 H    2.513179399339    1.299332712234    0.687246602908
 H    3.070179399339    0.466332712234   -0.745753397092
 H   -2.930820600661   -0.823667287766   -1.451753397092
 H    1.382179399339    1.491332712234   -2.340753397092
 H   -2.645820600661    0.572332712234   -3.450753397092
 H   -0.522820600661    1.713332712234   -3.892753397092
 H    3.291189399339   -0.276887287766    0.867306602908
