21
0 1 
 C   -1.285074680589    1.538986233971   -2.648102923289
 C    0.714925319411   -0.581013766029   -0.472102923289
 C   -0.284074680589    0.591986233971   -2.048102923289
 C    0.830925319411    0.014986233971   -2.586102923289
 N   -0.326074680589    0.201986233971   -0.727102923289
 N    1.432925319411   -0.713013766029   -1.584102923289
 H    0.891925319411   -1.007013766029    0.494897076711
 H    2.280925319411   -1.253013766029   -1.684102923289
 H    1.243925319411    0.060986233971   -3.585102923289
 H   -0.904074680589    1.844986233971   -3.621102923289
 H   -1.327074680589    2.407986233971   -1.989102923289
 H   -2.310074680589    1.145686233971   -2.716292923289
 C    0.075925319411    0.048986233971    3.039897076711
 C   -1.348074680589    0.340986233971    3.496897076711
 O    0.191925319411   -1.278013766029    2.556897076711
 H    0.332925319411    0.752986233971    2.247897076711
 H    0.753925319411    0.186986233971    3.880897076711
 H   -1.463074680589    1.417986233971    3.608897076711
 H    1.100925319411   -1.428013766029    2.265897076711
 H   -1.569234680589   -0.136713766029    4.462777076711
 H   -2.031304680589    0.113686233971    2.665297076711
