15
0 1 
 C    0.412231748557    2.423828706862    0.125424977030
 C   -1.152768251443    0.425828706862    0.187424977030
 C    0.146231748557    0.948828706862    0.069424977030
 C   -1.372768251443   -0.979171293138    0.140424977030
 C    1.197231748557    0.060828706862   -0.180575022970
 C   -0.286768251443   -1.855171293138   -0.104575022970
 C    0.998231748557   -1.331171293138   -0.259575022970
 H   -1.987768251443    1.089828706862    0.362424977030
 H   -2.366768251443   -1.381171293138    0.264424977030
 H    1.454231748557    2.586828706862    0.394424977030
 H   -0.193768251443    2.843828706862    0.924424977030
 H    2.200231748557    0.448828706862   -0.293575022970
 H   -0.446768251443   -2.922171293138   -0.157575022970
 H    1.832231748557   -1.996171293138   -0.429575022970
 H    0.203471748557    2.976058706862   -0.802725022970
