27
0 1 
 C   -2.824329465344   -0.536501619247   -0.920062300990
 C   -4.111329465344   -0.422501619247   -1.761062300990
 H   -2.102329465344   -1.191501619247   -1.410062300990
 H   -2.389329465344    0.453498380753   -0.803062300990
 H   -3.036329465344   -0.908501619247    0.081937699010
 H   -4.820329465344    0.216498380753   -1.234062300990
 H   -4.553099465344   -1.413631619247   -1.941333300990
 H   -3.883509465344    0.021368380753   -2.741407300990
 C    0.093670534656    1.376498380753   -1.691062300990
 C    1.350670534656    1.912498380753   -2.409062300990
 C    0.441670534656    0.616498380753   -0.458062300990
 C    0.980670534656   -0.648501619247   -0.554062300990
 C    0.206670534656    1.174498380753    0.775937699010
 C    1.318670534656   -1.367501619247    0.585937699010
 C    0.534670534656    0.482498380753    1.921937699010
 C    1.114670534656   -0.801501619247    1.817937699010
 O    1.437670534656   -1.552501619247    2.913937699010
 H   -0.558329465344    2.211498380753   -1.430062300990
 H   -0.452329465344    0.723498380753   -2.373062300990
 H    1.915670534656    1.041498380753   -2.734062300990
 H    1.145670534656   -1.089501619247   -1.529062300990
 H   -0.229329465344    2.161498380753    0.855937699010
 H    1.738670534656   -2.359501619247    0.493937699010
 H    0.353670534656    0.906498380753    2.896937699010
 H    1.727670534656   -2.436501619247    2.678937699010
 H    1.972530534656    2.529068380753   -1.743379300990
 H    1.002370534656    2.508138380753   -3.265744300990
