20
0 1 
 C   -1.588300387019   -2.148942849080   -0.828940028738
 C   -0.629300387019   -1.792942849080    0.285059971262
 O   -0.785300387019   -0.768942849080    0.949059971262
 N    0.366699612981   -2.633942849080    0.504059971262
 H   -2.473300387019   -2.575942849080   -0.356940028738
 H   -1.157300387019   -2.918942849080   -1.469940028738
 H    0.995699612981   -2.452942849080    1.272059971262
 H    0.457699612981   -3.470942849080   -0.052940028738
 H   -1.881000387019   -1.267242849080   -1.417940028738
 C    0.568699612981    2.085057150920   -0.049940028738
 C    0.046699612981    3.500057150920   -0.277940028738
 C    1.965699612981    1.835057150920   -0.585940028738
 H    0.547699612981    1.886057150920    1.024059971262
 H   -0.101300387019    1.373057150920   -0.530940028738
 H    0.167699612981    3.747057150920   -1.329940028738
 H    1.917699612981    1.679057150920   -1.663940028738
 H    2.602699612981    2.698057150920   -0.389940028738
 H    0.592229612981    4.217657150920    0.352499971262
 H   -1.033390387019    3.505157150920   -0.069640028738
 H    2.404989612981    0.965167150920   -0.075730028738
