31
0 1 
 C    1.063687132395    3.034878647225   -1.351239840581
 C    0.758687132395    1.312878647225    0.449760159419
 C    1.225687132395    2.566878647225    0.062760159419
 C    0.958687132395    0.855878647225    1.752760159419
 C    1.623687132395    1.656878647225    2.680760159419
 C    1.888687132395    3.364878647225    0.992760159419
 C    2.090687132395    2.910878647225    2.297760159419
 H    0.244687132395    0.687878647225   -0.264239840581
 H    0.625687132395   -0.133121352775    2.014760159419
 H    1.255687132395    2.193878647225   -2.018239840581
 H    1.822687132395    3.791878647225   -1.559239840581
 H    1.811687132395    1.289878647225    3.679760159419
 H    2.283687132395    4.323878647225    0.689760159419
 H    2.671687132395    3.490878647225    2.985760159419
 H    0.072317132395    3.450518647225   -1.584549840581
 C   -3.029312867605   -1.150121352775   -2.920239840581
 C   -0.284312867605   -2.311121352775    0.173760159419
 C   -1.659312867605   -2.330121352775    0.426760159419
 C    0.192687132395   -1.864121352775   -1.058239840581
 C   -2.549312867605   -1.913121352775   -0.565239840581
 C   -0.700312867605   -1.448121352775   -2.036239840581
 C   -2.076312867605   -1.473121352775   -1.805239840581
 O    0.598687132395   -2.739121352775    1.119760159419
 H   -2.033312867605   -2.680121352775    1.374760159419
 H    0.153687132395   -2.954121352775    1.942760159419
 H    1.244687132395   -1.832121352775   -1.262239840581
 H   -3.614312867605   -1.965121352775   -0.385239840581
 H   -0.316312867605   -1.107121352775   -2.975239840581
 H   -3.850312867605   -1.868121352775   -2.881239840581
 H   -2.507312867605   -1.340121352775   -3.858239840581
 H   -3.456222867605   -0.137201352775   -2.961999840581
