11
0 1 
 C    0.262712676017   -0.385557460734    0.353360851378
 C    0.354712676017   -0.439557460734   -1.172639148622
 C   -0.606287323983    0.797442539266    0.841360851378
 H   -0.158287323983   -1.324557460734    0.720360851378
 H    1.268712676017   -0.278557460734    0.764360851378
 H    0.710712676017    0.531442539266   -1.528639148622
 H   -0.129287323983    1.734442539266    0.553360851378
 H   -1.603287323983    0.764442539266    0.408360851378
 H   -0.632827323983   -0.648787460734   -1.609649148622
 H    1.093712676017   -1.182147460734   -1.507959148622
 H   -0.682067323983    0.733212539266    1.936870851378
