9
0 1 
 C    0.393085677296   -0.927584627959    1.038587361041
 C   -0.052914322704   -0.005584627959   -0.070412638959
 O   -0.527914322704   -0.436584627959   -1.122412638959
 N    0.150085677296    1.288415372041    0.142587361041
 H   -0.055914322704    1.925415372041   -0.610412638959
 H    0.688085677296    1.591415372041    0.938587361041
 H    0.380085677296   -0.349584627959    1.965587361041
 H    1.432085677296   -1.186584627959    0.832587361041
 H   -0.201664322704   -1.842354627959    1.178104361041
