8
0 1 
 C   -0.395717137310    0.620176445512    0.179264079352
 C    0.397282862690   -0.622823554488   -0.177735920648
 H    0.243282862690    1.369176445512    0.649264079352
 H   -0.834717137310    1.055176445512   -0.719735920648
 H   -1.205717137310    0.358176445512    0.860264079352
 H    1.247282862690   -0.326823554488   -0.790735920648
 H    0.756822862690   -1.106263554488    0.742598079352
 H   -0.225597137310   -1.317923554488   -0.759849920648
