17
0 1 
 C    1.272948036091   -0.711090873432    0.594309047781
 C    2.694948036091   -0.767090873432    1.149309047781
 O    1.121948036091    0.376909126568   -0.300690952219
 H    1.056948036091   -1.648090873432    0.078309047781
 H    0.566948036091   -0.591090873432    1.418309047781
 H    3.350948036091   -1.011090873432    0.316309047781
 H    0.448948036091    0.174909126568   -0.959690952219
 H    2.755268036091   -1.538441873432    1.931216047781
 H    2.983658036091    0.223485126568    1.530634047781
 C   -2.066051963909   -0.049090873432   -0.677690952219
 C   -3.040051963909    1.128909126568   -0.683690952219
 H   -2.570051963909   -0.925090873432   -0.266690952219
 H   -1.760051963909   -0.291090873432   -1.692690952219
 H   -1.219051963909    0.154909126568   -0.048690952219
 H   -4.013051963909    0.755909126568   -0.976690952219
 H   -3.114191963909    1.575902126568    0.318656047781
 H   -2.740001963909    1.881206126568   -1.428015752219
