9
0 1 
 C   -0.121124356718    0.177949257403   -0.488785466338
 C   -0.320124356718   -1.266050742597   -0.057785466338
 O    0.416875643282    0.955949257403    0.516214533662
 H    0.558875643282    0.208949257403   -1.339785466338
 H   -1.080124356718    0.594949257403   -0.796785466338
 H   -0.463124356718   -1.884050742597   -0.941785466338
 H    0.235875643282    1.886949257403    0.323214533662
 H   -1.186784356718   -1.376558742597    0.610564533662
 H    0.573035643282   -1.646008742597    0.459804533662
