8
0 1 
 C   -0.184529354712   -0.229141567917   -0.703554353816
 C    0.183470645288    0.230858432083    0.706445646184
 H   -1.196529354712    0.095858432083   -0.950554353816
 H    0.500470645288    0.174858432083   -1.441554353816
 H   -0.126529354712   -1.312141567917   -0.773554353816
 H    1.174470645288   -0.154141567917    0.947445646184
 H   -0.546464354712   -0.154604667917    1.433505646184
 H    0.207187645288    1.329728532083    0.750285646184
