16
0 1 
 C   -0.069986902444   -1.476613759463   -0.987058384563
 C   -0.703986902444   -2.746613759463   -1.367058384563
 H    0.431013097556   -1.574613759463   -0.029058384563
 H    0.678013097556   -1.195613759463   -1.728058384563
 H   -0.825986902444   -0.693613759463   -0.930058384563
 H    0.058013097556   -3.525613759463   -1.364058384563
 H   -1.522716902444   -3.045313759463   -0.695889384563
 H   -1.086216902444   -2.627343759463   -2.391596384563
 C    0.420013097556    1.382386240537    1.398941615437
 C    0.348013097556    2.839386240537    0.958941615437
 H    0.192013097556    0.730386240537    0.561941615437
 H    1.426013097556    1.162386240537    1.755941615437
 H   -0.289986902444    1.200386240537    2.205941615437
 H    0.670013097556    3.465386240537    1.790941615437
 H   -0.678256902444    3.116486240537    0.676127615437
 H    1.018903097556    3.004406240537    0.102978615437
