8
0 1 
 C    0.516875297799    0.510767710980    0.264622186107
 C   -0.516124702201   -0.515232289020   -0.268377813893
 H    0.566875297799    1.373767710980   -0.395377813893
 H    0.219875297799    0.865767710980    1.245622186107
 H    1.504875297799    0.053767710980    0.347622186107
 H   -0.481124702201   -1.414232289020    0.342622186107
 H   -0.307427702201   -0.768900889020   -1.318186313893
 H   -1.512010702201   -0.057010989020   -0.177584813893
