23
0 1 
 C    2.248093612919   -2.774650873150   -0.132426576343
 C    2.296093612919   -3.747650873150    1.066573423657
 H    2.989093612919   -3.054650873150   -0.879426576343
 H    1.257093612919   -2.795650873150   -0.581426576343
 H    2.432093612919   -1.750650873150    0.195573423657
 H    1.524093612919   -3.465650873150    1.770573423657
 H    3.278133612919   -3.716248873150    1.561160423657
 H    2.093113612919   -4.776094873150    0.733255023657
 C   -0.343906387081    2.671349126850   -1.971426576343
 C    0.256093612919    0.235349126850    0.898573423657
 C    0.495093612919    1.173349126850   -0.105426576343
 C   -1.041906387081   -0.183650873150    1.203573423657
 C   -0.586906387081    1.708349126850   -0.833426576343
 C   -2.128906387081    0.352349126850    0.498573423657
 C   -1.885906387081    1.296349126850   -0.523426576343
 H    1.090093612919   -0.176650873150    1.452573423657
 H    1.509093612919    1.475349126850   -0.328426576343
 H   -1.222906387081   -0.927650873150    1.958573423657
 H   -3.137906387081    0.031349126850    0.719573423657
 H    0.429093612919    3.352349126850   -1.670426576343
 H   -1.250906387081    3.248349126850   -2.158426576343
 H   -2.723906387081    1.687349126850   -1.084426576343
 H   -0.024876387081    2.162919126850   -2.893227576343
