6
0 1 
 C    0.253389960566    0.635700479149    0.185486562235
 O   -0.219610039434   -0.627299520851   -0.130513437765
 H   -0.681610039434   -0.527299520851   -0.994513437765
 H    0.536389960566    0.645700479149    1.237486562235
 H   -0.525610039434    1.381700479149    0.036486562235
 H    1.139129960566    0.886420479149   -0.416673437765
