8
0 1 
 C    0.113137448973    0.724624179913   -0.227788564775
 C   -0.107862551027   -0.726375820087    0.226211435225
 H   -0.557862551027    0.964624179913   -1.052788564775
 H   -0.099862551027    1.417624179913    0.587211435225
 H    1.142137448973    0.870624179913   -0.546788564775
 H   -1.086862551027   -0.789375820087    0.674211435225
 H    0.646791448973   -1.010446820087    0.974411435225
 H   -0.107148551027   -1.432193420087   -0.617478564775
