11
0 1 
 C   -0.427873051936   -0.268778381720    0.261587551926
 C    0.533126948064   -0.956778381720   -0.718412448074
 C   -0.126873051936    1.210221618280    0.470587551926
 H   -1.448873051936   -0.354778381720   -0.116412448074
 H   -0.396873051936   -0.777778381720    1.226587551926
 H    0.711126948064   -0.340778381720   -1.600412448074
 H   -0.764873051936    1.583221618280    1.270587551926
 H    0.912126948064    1.336221618280    0.772587551926
 H    0.114336948064   -1.917128381720   -1.053592448074
 H    1.503516948064   -1.138278381720   -0.233222448074
 H   -0.373073051936    1.791891618280   -0.429992448074
