16
0 1 
 C    0.593787437320   -1.590417163556   -0.606532085017
 C    1.525787437320   -1.564417163556    0.605467914983
 H   -0.464212562680   -1.517417163556   -0.412532085017
 H    0.874787437320   -0.777417163556   -1.276532085017
 H    0.753787437320   -2.527417163556   -1.140532085017
 H    1.558787437320   -0.558417163556    1.024467914983
 H    2.523787437320   -1.834417163556    0.260467914983
 H    1.171037437320   -2.270337163556    1.370866914983
 C   -0.703212562680    1.252582836444    0.591467914983
 C   -1.426212562680    1.898582836444   -0.585532085017
 H   -0.760212562680    0.188582836444    0.632467914983
 H    0.347787437320    1.537582836444    0.551467914983
 H   -1.124212562680    1.640582836444    1.519467914983
 H   -0.916212562680    1.632582836444   -1.511532085017
 H   -1.379212562680    2.980582836444   -0.454532085017
 H   -2.468626562680    1.549190836444   -0.621552085017
