15
0 1 
 C    0.093100714639   -0.100807211991    1.776657168722
 C   -0.724899285361   -0.989807211991    0.848657168722
 O   -0.474899285361   -0.891807211991   -0.388342831278
 O   -1.545899285361   -1.808807211991    1.256657168722
 H    1.066100714639    0.108192788009    1.327657168722
 H    0.271100714639   -0.601807211991    2.722657168722
 H   -0.428349285361    0.850999788009    1.955977168722
 C    1.927100714639    2.073192788009   -1.398342831278
 N    0.586100714639    1.458192788009   -1.788342831278
 H    0.581100714639    1.195192788009   -2.768342831278
 H    0.393100714639    0.599192788009   -1.265342831278
 H   -0.186899285361    2.093192788009   -1.633342831278
 H    2.724100714639    1.332192788009   -1.519342831278
 H    1.913100714639    2.374192788009   -0.345342831278
 H    2.171754714639    2.949327788009   -2.016833831278
