9
0 1 
 C   -1.004204612317    0.369002799404   -0.977544465562
 C    0.032795387683   -0.068997200596    0.037455534438
 O    0.252795387683   -1.256997200596    0.227455534438
 N    0.687795387683    0.901002799404    0.675455534438
 H    1.319795387683    0.635002799404    1.423455534438
 H    0.511795387683    1.870002799404    0.444455534438
 H   -1.679204612317    1.098002799404   -0.534544465562
 H   -1.607204612317   -0.502997200596   -1.235544465562
 H   -0.547294612317    0.758482799404   -1.899244465562
