8
1 1 
 C    0.460727311549   -0.560258869986   -0.312544534066
 N   -0.406272688451    0.497741130014    0.277455465934
 H   -0.051272688451    1.427741130014    0.092455465934
 H   -1.342272688451    0.447741130014   -0.109544534066
 H   -0.485272688451    0.362741130014    1.284455465934
 H    0.532727311549   -0.415258869986   -1.395544534066
 H    0.036727311549   -1.553258869986   -0.131544534066
 H    1.468457311549   -0.514588869986    0.126073465934
