8
0 1 
 C   -0.381810366863   -0.415254507546   -0.507313715284
 C    0.380189633137    0.421745492454    0.506686284716
 H    0.301189633137   -0.780254507546   -1.275313715284
 H   -0.836810366863   -1.269254507546   -0.008313715284
 H   -1.159810366863    0.185745492454   -0.977313715284
 H    1.094189633137   -0.258254507546    0.964686284716
 H    0.912169633137    1.247285492454    0.011221284716
 H   -0.291630366863    0.797445492454    1.292504284716
