8
0 1 
 C    0.215887725458   -0.513852539305   -0.522468609803
 C   -0.212112274542    0.516147460695    0.527531390197
 H    1.102887725458   -1.054852539305   -0.187468609803
 H   -0.587112274542   -1.225852539305   -0.708468609803
 H    0.421887725458   -0.043852539305   -1.484468609803
 H   -1.073112274542    1.065147460695    0.139531390197
 H    0.599617725458    1.231037460695    0.727611390197
 H   -0.509122274542    0.001047460695    1.452981390197
