8
0 1 
 C   -0.686900823014   -0.089302226793    0.314411365656
 C    0.686099176986    0.091697773207   -0.317588634344
 H   -1.351900823014   -0.631302226793   -0.357588634344
 H   -0.584900823014   -0.666302226793    1.233411365656
 H   -1.123900823014    0.880697773207    0.558411365656
 H    1.071099176986   -0.886302226793   -0.598588634344
 H    0.609209176986    0.742007773207   -1.201435634344
 H    1.389939176986    0.532677773207    0.403621365656
