30
0 1 
 C    0.212192167002    0.121720025635   -3.597355807632
 C    1.178192167002    0.112720025635    0.015644192368
 C    0.691192167002   -0.569279974365   -1.130355807632
 C    0.660192167002    0.380720025635   -2.208355807632
 C    1.170192167002    1.539720025635   -1.716355807632
 C    1.265192167002   -0.498279974365    1.255644192368
 C    0.871192167002   -1.821279974365    1.361644192368
 C    0.373192167002   -2.516279974365    0.250644192368
 C    0.270192167002   -1.899279974365   -0.993355807632
 N    1.472192167002    1.390720025635   -0.380355807632
 H    1.666192167002    0.027720025635    2.093644192368
 H    0.945192167002   -2.328279974365    2.313644192368
 H    1.855192167002    2.124720025635    0.205644192368
 H    0.063192167002   -3.539279974365    0.372644192368
 H    1.305192167002    2.451720025635   -2.290355807632
 H   -0.135807832998   -2.435279974365   -1.840355807632
 H    0.090192167002    1.068720025635   -4.126355807632
 H   -0.766807832998   -0.347279974365   -3.535355807632
 H    0.887631167002   -0.537879974365   -4.161901807632
 C   -2.322807832998    0.612720025635    1.858644192368
 C   -2.992807832998    0.445720025635    3.209644192368
 C   -1.947807832998    2.040720025635    1.557644192368
 H   -1.440807832998   -0.026279974365    1.792644192368
 H   -3.033807832998    0.273720025635    1.100644192368
 H   -3.809807832998    1.163720025635    3.288644192368
 H   -2.706807832998    2.728720025635    1.933644192368
 H   -0.986807832998    2.267720025635    2.022644192368
 H   -2.263293832998    0.612100025635    4.015948892368
 H   -3.434316832998   -0.560659974365    3.257257912368
 H   -1.882609832998    2.146210025635    0.464657192368
