30
0 1 
 C    0.534628644685    2.579516645943    0.326352559610
 C    0.943628644685    3.360516645943   -0.917647440390
 C    1.490628644685    1.488516645943    0.710352559610
 C    1.513628644685    0.176516645943    0.352352559610
 C    3.201628644685    0.539516645943    1.720352559610
 N    2.548628644685    1.689516645943    1.572352559610
 N    2.593628644685   -0.393483354057    0.992352559610
 H    0.413628644685    3.257516645943    1.163352559610
 H   -0.429371355315    2.124516645943    0.135352559610
 H    1.170628644685    2.654516645943   -1.717647440390
 H    0.806628644685   -0.317483354057   -0.302647440390
 H    4.078628644685    0.383516645943    2.338352559610
 H    2.877628644685   -1.365483354057    0.940352559610
 H    1.820678644685    3.990212645943   -0.707247440390
 H    0.096778644685    3.979092645943   -1.249617440390
 C   -1.551371355315   -3.574483354057   -1.803647440390
 C   -2.179371355315    0.208516645943    0.164352559610
 C   -2.061371355315   -0.957483354057    0.915352559610
 C   -2.085371355315    0.150516645943   -1.221647440390
 C   -1.847371355315   -2.178483354057    0.276352559610
 C   -1.881371355315   -1.070483354057   -1.853647440390
 C   -1.754371355315   -2.244483354057   -1.112647440390
 H   -2.372371355315    1.149516645943    0.661352559610
 H   -2.139371355315   -0.915483354057    1.993352559610
 H   -2.184371355315    1.053516645943   -1.809647440390
 H   -1.754371355315   -3.079483354057    0.867352559610
 H   -1.820371355315   -1.104483354057   -2.933647440390
 H   -0.754371355315   -4.118483354057   -1.294647440390
 H   -1.213371355315   -3.379483354057   -2.811647440390
 H   -2.456361355315   -4.199747354057   -1.810087440390
