16
0 1 
 C    0.062941506821   -2.933194863354   -0.215508033956
 C    0.678941506821   -0.619194863354   -1.028508033956
 C    0.017941506821   -1.428194863354   -0.093508033956
 C    0.661941506821    0.766805136646   -0.929508033956
 C   -0.033058493179    1.370805136646    0.109491966044
 C   -0.664058493179   -0.816194863354    0.956491966044
 C   -0.707058493179    0.588805136646    1.054491966044
 O   -0.057058493179    2.736805136646    0.188491966044
 H    1.202941506821   -1.079194863354   -1.855508033956
 H    1.177941506821    1.365805136646   -1.665508033956
 H    0.152941506821   -3.184194863354   -1.271508033956
 H   -0.881058493179   -3.357194863354    0.124491966044
 H   -1.118058493179   -1.428194863354    1.709491966044
 H    0.499941506821    3.141805136646   -0.479508033956
 H   -1.236058493179    1.066805136646    1.865491966044
 H    0.897521506821   -3.402420863354    0.326071966044
