16
1 1 
 C   -0.624567581929    1.017671513035   -0.986348248965
 C   -1.700567581929    0.492671513035   -1.933348248965
 C    0.563432418071   -0.355328486965    0.722651751035
 N   -0.538567581929    0.210671513035    0.235651751035
 N    1.709432418071   -0.255328486965    0.084651751035
 N    0.509432418071   -1.021328486965    1.842651751035
 H    0.319432418071    1.014671513035   -1.531348248965
 H   -0.829567581929    2.058671513035   -0.720348248965
 H   -1.609567581929   -0.585328486965   -2.056348248965
 H   -1.567567581929    0.970671513035   -2.902348248965
 H   -1.383567581929    0.099671513035    0.786651751035
 H    1.815432418071    0.302671513035   -0.733348248965
 H    2.557432418071   -0.674328486965    0.496651751035
 H   -0.358567581929   -1.453328486965    2.071651751035
 H    1.373432418071   -1.431328486965    2.220651751035
 H   -2.687237581929    0.756571513035   -1.524888248965
