13
1 1 
 C    1.092278395352    1.519032499789    0.656866859018
 C   -0.264721604648   -0.377967500211   -0.155133140982
 N   -1.027721604648    0.434032499789   -0.862133140982
 N    0.734278395352    0.101032499789    0.567866859018
 N   -0.500721604648   -1.673967500211   -0.173133140982
 H   -0.866721604648    1.447032499789   -0.830133140982
 H   -1.616721604648    0.058032499789   -1.581133140982
 H    1.273278395352   -0.576967500211    1.105866859018
 H    0.079278395352   -2.263967500211    0.410866859018
 H   -1.270721604648   -2.065967500211   -0.689133140982
 H    1.660278395352    1.668032499789    1.576866859018
 H    0.202278395352    2.146032499789    0.719866859018
 H    1.719878395352    1.825617299789   -0.192914140982
