22
0 1 
 C   -1.322852565807    0.886108907582   -2.009833833733
 C   -2.625852565807    1.673108907582   -2.177833833733
 C   -0.946852565807    0.501108907582   -0.618833833733
 C   -1.689852565807    0.635108907582    0.512166166267
 C    0.296147434193   -0.107891092418   -0.217833833733
 C    0.231147434193   -0.316891092418    1.185166166267
 C    1.454147434193   -0.508891092418   -0.904833833733
 C    1.279147434193   -0.895891092418    1.903166166267
 C    2.507147434193   -1.085891092418   -0.186833833733
 C    2.414147434193   -1.277891092418    1.204166166267
 N   -0.989852565807    0.151108907582    1.594166166267
 H   -1.314852565807   -0.000891092418   -2.632833833733
 H   -0.514852565807    1.526108907582   -2.357833833733
 H   -2.657852565807    2.477108907582   -1.439833833733
 H   -2.691852565807    1.050108907582    0.558166166267
 H   -1.343852565807    0.146108907582    2.545166166267
 H    1.532147434193   -0.360891092418   -1.971833833733
 H    1.201147434193   -1.045891092418    2.970166166267
 H    3.407147434193   -1.385891092418   -0.707833833733
 H    3.233147434193   -1.736891092418    1.739166166267
 H   -3.504572565807    1.021200907582   -2.064423833733
 H   -2.601342565807    2.138798907582   -3.174093833733
