17
0 1 
 C   -0.643569789783    1.431853292912    0.563369097473
 C   -2.061569789783   -0.934146707088    0.800369097473
 S   -1.650569789783    0.313853292912   -0.420630902527
 H    0.140430210217    0.875853292912    1.077369097473
 H   -0.187569789783    2.178853292912   -0.086630902527
 H   -1.261569789783    1.942853292912    1.301369097473
 H   -1.167569789783   -1.177146707088    1.364369097473
 H   -2.447569789783   -1.821146707088    0.299369097473
 H   -2.825589789783   -0.521896707088    1.475891097473
 C    2.469430210217   -0.164146707088   -0.388630902527
 C    3.723430210217   -0.999146707088   -0.172630902527
 H    2.486430210217    0.302853292912   -1.374630902527
 H    1.581430210217   -0.793146707088   -0.309630902527
 H    2.420430210217    0.618853292912    0.370369097473
 H    3.701430210217   -1.434146707088    0.826369097473
 H    4.630420210217   -0.381966707088   -0.252969002527
 H    3.764000210217   -1.821416707088   -0.902169202527
