11
0 1 
 C   -0.211494361228   -0.523344945099    0.157314453407
 C    0.313505638772   -0.192344945099   -1.236685546593
 C   -0.113494361228    0.678655054901    1.092314453407
 H   -1.255494361228   -0.825344945099    0.084314453407
 H    0.347505638772   -1.363344945099    0.573314453407
 H   -0.095494361228    0.778655054901   -1.525685546593
 H    0.922505638772    1.011655054901    1.159314453407
 H   -0.711494361228    1.491655054901    0.677314453407
 H   -0.002334361228   -0.946424945099   -1.972625546593
 H    1.412397638772   -0.145166945099   -1.251205546593
 H   -0.480864361228    0.439284054901    2.101144453407
