19
0 1 
 C   -0.833415602963    0.157516529710    2.227250406645
 C   -2.218415602963   -0.400483470290    2.486250406645
 H   -0.852415602963    0.849516529710    1.384250406645
 H   -0.489415602963    0.697516529710    3.107250406645
 H   -0.132415602963   -0.644483470290    2.037250406645
 H   -2.142415602963   -1.200483470290    3.222250406645
 H   -2.653375602963   -0.785754470290    1.552239406645
 H   -2.872688602963    0.371880529710    2.916808406645
 C    1.047584397037    0.397516529710   -1.126749593355
 C    2.293584397037   -0.183483470290   -1.775749593355
 C   -0.221415602963    0.046516529710   -1.894749593355
 H    0.968584397037    0.037516529710   -0.103749593355
 H    1.140584397037    1.483516529710   -1.081749593355
 H    3.142584397037    0.444516529710   -1.498749593355
 H    2.191584397037   -0.108483470290   -2.859749593355
 H   -0.177415602963   -0.993483470290   -2.226749593355
 H   -1.060415602963    0.144516529710   -1.204749593355
 H    2.530794397037   -1.221180470290   -1.498409593355
 H   -0.402309602963    0.715535529710   -2.748969593355
