16
0 1 
 C   -0.590222802512   -0.321710756240   -1.646950045422
 C    0.397777197488   -1.385710756240   -2.118950045422
 H   -1.477222802512   -0.320710756240   -2.282950045422
 H   -0.899222802512   -0.535710756240   -0.626950045422
 H   -0.124222802512    0.662289243760   -1.663950045422
 H    1.339777197488   -1.257710756240   -1.588950045422
 H    0.560957197488   -1.298390756240   -3.203268045422
 H    0.011117197488   -2.389140756240   -1.887389045422
 C    0.314777197488    1.485289243760    1.503049954578
 C   -0.112222802512    0.222289243760    2.261049954578
 H    0.928777197488    1.239289243760    0.638049954578
 H   -0.574222802512    2.006289243760    1.148049954578
 H    0.868777197488    2.146289243760    2.170049954578
 H   -0.567222802512   -0.476710756240    1.562049954578
 H   -0.890222802512    0.510289243760    2.961049954578
 H    0.702567197488   -0.287940756240    2.795641954578
