15
-1 1 
 C   -1.179908767943    1.938830808496   -0.220523229980
 C   -1.278908767943    0.435830808496    0.017476770020
 O   -1.360908767943   -0.332169191504   -0.963523229980
 O   -1.238908767943    0.013830808496    1.190476770020
 H   -0.132908767943    2.189830808496   -0.074523229980
 H   -1.779908767943    2.488830808496    0.505476770020
 H   -1.479478767943    2.226184808496   -1.239193229980
 C    2.250091232057   -0.304169191504   -0.182523229980
 C    2.709091232057   -1.715169191504    0.161476770020
 H    3.060091232057    0.387830808496    0.014476770020
 H    1.986091232057   -0.253169191504   -1.239523229980
 H    1.377091232057   -0.026169191504    0.400476770020
 H    1.910091232057   -2.414169191504   -0.081523229980
 H    2.959354232057   -1.809107191504    1.228502470020
 H    3.589151232057   -1.968574191504   -0.447851229980
