30
0 1 
 C    3.591652112338   -1.624941165760   -0.775719680196
 C    1.062652112338   -0.685941165760    1.876280319804
 C    1.996652112338   -0.597941165760    0.857280319804
 C    0.775652112338   -1.903941165760    2.476280319804
 C    2.654652112338   -1.712941165760    0.402280319804
 C    1.417652112338   -3.040941165760    2.016280319804
 C    2.357652112338   -2.933941165760    0.989280319804
 H    0.553652112338    0.209058834240    2.203280319804
 H    2.169652112338    0.350058834240    0.383280319804
 H    0.036652112338   -1.972941165760    3.260280319804
 H    1.178652112338   -4.003941165760    2.441280319804
 H    3.060652112338   -1.105941165760   -1.575719680196
 H    3.818652112338   -2.627941165760   -1.139719680196
 H    2.835652112338   -3.829941165760    0.621280319804
 H    4.531302112338   -1.089732165760   -0.574209680196
 C   -3.584347887662    2.642058834240    0.582280319804
 C   -0.859347887662    0.570058834240   -1.090719680196
 C   -1.753347887662    1.076058834240   -0.139719680196
 C   -0.816347887662    1.131058834240   -2.343719680196
 C   -2.594347887662    2.133058834240   -0.436719680196
 C   -1.669347887662    2.172058834240   -2.654719680196
 C   -2.558347887662    2.653058834239   -1.712719680196
 H   -0.201347887662   -0.248941165760   -0.844719680196
 H   -1.783347887662    0.630058834240    0.844280319804
 H   -0.128347887662    0.745058834240   -3.077719680196
 H   -1.643347887662    2.607058834240   -3.641719680196
 H   -3.881347887662    3.661058834239    0.323280319804
 H   -3.096347887662    2.676058834240    1.557280319804
 H   -3.224347887662    3.463058834240   -1.979719680196
 H   -4.478017887662    2.004547834240    0.652470319804
