9
0 1 
 C    0.856677812009    1.149747115142    0.428077420887
 C   -0.561322187991   -1.216252884858    0.665077420887
 S   -0.150322187991    0.031747115142   -0.555922579113
 H    1.640677812009    0.593747115142    0.942077420887
 H    1.312677812009    1.896747115142   -0.221922579113
 H    0.238677812009    1.660747115142    1.166077420887
 H    0.332677812009   -1.459252884858    1.229077420887
 H   -0.947322187991   -2.103252884858    0.164077420887
 H   -1.325342187991   -0.804002884858    1.340599420887
