8
0 1 
 C    0.180231576533   -0.301751014402   -0.677382375093
 C   -0.184768423467    0.303248985598    0.676617624907
 H   -0.013768423467    0.411248985598   -1.476382375093
 H    1.236231576533   -0.552751014402   -0.681382375093
 H   -0.371768423467   -1.219751014402   -0.866382375093
 H   -0.080768423467   -0.463751014402    1.442617624907
 H   -1.217898423467    0.680818985598    0.667303624907
 H    0.501991576533    1.126348985598    0.923331624907
