21
0 1 
 C   -0.116494496183   -1.489532510937    0.315849294732
 C   -0.947494496183   -2.706532510937   -0.106150705268
 C   -0.767494496183   -0.163532510937    0.027849294732
 C   -0.586494496183    0.696467489063   -1.010150705268
 C   -2.098494496183    1.562467489063    0.327849294732
 N   -1.715494496183    0.403467489063    0.849849294732
 N   -1.431494496183    1.767467489063   -0.803150705268
 H    0.094505503817   -1.545532510937    1.383849294732
 H    0.823505503817   -1.542532510937   -0.226150705268
 H   -1.130494496183   -2.645532510937   -1.178150705268
 H    0.093505503817    0.556467489063   -1.840150705268
 H   -2.827494496183    2.228467489063    0.766849294732
 H   -1.564494496183    2.558467489063   -1.429150705268
 H   -1.898363496183   -2.718684510937    0.446751294732
 H   -0.426656496183   -3.649103510937    0.118098294732
 C    3.918505503817    0.053467489063    0.568849294732
 O    2.708505503817    0.034467489063   -0.181150705268
 H    2.007505503817    0.229467489063    0.457849294732
 H    4.007505503817    1.005467489063    1.094849294732
 H    3.928508303817   -0.771048510937    1.296910294732
 H    4.751777503817   -0.041057510937   -0.142994705268
