19
0 1 
 C    2.450746043503   -0.367473877319    0.590194274035
 C    2.766746043503    0.278526122681    1.942194274035
 C    1.008746043503   -0.196473877319    0.155194274035
 C    0.638746043503    0.831526122681   -0.725805725965
 C    0.014746043503   -1.068473877319    0.616194274035
 C   -0.705253956497    0.985526122681   -1.129805725965
 C   -1.327253956497   -0.924473877319    0.242194274035
 C   -1.690253956497    0.104526122681   -0.641805725965
 O   -2.992253956497    0.232526122681   -1.052805725965
 H    3.083746043503    0.065526122681   -0.178805725965
 H    2.680746043503   -1.431473877319    0.642194274035
 H    3.806746043503    0.056526122681    2.177194274035
 H    1.389746043503    1.502526122681   -1.118805725965
 H    0.327746043503   -1.995473877319    1.014194274035
 H   -0.975253956497    1.773526122681   -1.818805725965
 H   -2.067253956497   -1.641473877319    0.564194274035
 H   -3.102253956497    0.969526122681   -1.665805725965
 H    2.089326043503   -0.114183877319    2.714773274035
 H    2.666466043503    1.372866122681    1.893508274035
