18
0 1 
 C    0.089596591872    1.507759805061   -0.253842651296
 C   -1.240403408128    2.181759805061   -0.018842651296
 C   -1.453403408128   -0.049240194939    0.771157348704
 C    1.969596591872   -0.719240194939   -0.766842651296
 C    0.618596591872   -0.957240194939   -0.101842651296
 O    0.282596591872   -2.092240194939    0.242157348704
 N   -0.172403408128    0.105759805061    0.091157348704
 H    0.401596591872    1.632759805061   -1.289842651296
 H    0.826596591872    1.926759805061    0.432157348704
 H   -1.855403408128    2.106759805061   -0.916842651296
 H   -1.112403408128    3.227759805061    0.262157348704
 H   -1.338403408128   -0.616240194939    1.696157348704
 H    1.784596591872   -0.145240194939   -1.674842651296
 H   -1.692303408128    1.596559805061    0.795607348704
 H   -1.745323408128    0.985479805061    1.003827348704
 H   -2.229483408128   -0.519500194939    0.149427348704
 H    2.639346591872   -0.166260194939   -0.091822651296
 H    2.422316591872   -1.675550194939   -1.067702651296
