17
0 1 
 C    1.032811004102   -1.894026727560    0.756038555954
 C    2.170811004102   -2.642026727560    1.459038555954
 H    0.305811004102   -2.603026727560    0.356038555954
 H    0.532811004102   -1.227026727560    1.455038555954
 H    1.416811004102   -1.284026727560   -0.060961444046
 H    2.866811004102   -1.911026727560    1.869038555954
 H    2.715071004102   -3.277586727560    0.745008555954
 H    1.788111004102   -3.251486727560    2.290964555954
 C   -1.437188995898    0.573973272440   -0.551961444046
 C   -1.663188995898    0.742973272440   -2.063961444046
 S   -0.061188995898    1.519973272440    0.141038555954
 H   -2.354188995898    0.829973272440   -0.021961444046
 H   -1.236188995898   -0.481026727560   -0.366961444046
 H   -2.318188995898   -0.049026727560   -2.417961444046
 H   -0.123188995898    0.991973272440    1.368038555954
 H   -0.722011995898    0.673843272440   -2.629121444046
 H   -2.159817495898    1.698423272440   -2.288641444046
