23
0 1 
 C    0.072892887781   -2.671765663412    2.417561793434
 C   -0.948107112219   -2.259765663412    3.474561793434
 H    0.226892887781   -3.750765663412    2.436561793434
 H   -0.303107112219   -2.395765663412    1.432561793434
 H    1.020892887781   -2.153765663412    2.565561793434
 H   -1.033107112219   -1.173765663412    3.431561793434
 H   -0.649857112219   -2.550066663412    4.492781793434
 H   -1.925917112219   -2.695231663412    3.221081793434
 C    2.114892887781    1.575234336588    0.249561793434
 C   -0.066107112219    0.360234336588    0.132561793434
 C    0.922892887781    1.087234336588   -0.496438206566
 C   -1.197107112219   -0.061765663412   -0.520438206566
 C    0.753892887781    1.380234336588   -1.855438206566
 C   -1.375107112219    0.241234336588   -1.860438206566
 C   -0.395107112219    0.938234336588   -2.530438206566
 H    0.045892887781    0.118234336588    1.180561793434
 H   -1.928107112219   -0.632765663412    0.017561793434
 H    1.930892887781    1.511234336588    1.323561793434
 H    2.224892887781    2.631234336588    0.007561793434
 H    1.506892887781    1.946234336588   -2.382438206566
 H   -2.269107112219   -0.078765663412   -2.378438206566
 H   -0.510107112219    1.151234336588   -3.582438206566
 H    3.055622887781    1.058300336588    0.009141793434
