8
0 1 
 C   -0.177731319692    0.550452460890   -0.518900471294
 C    0.180268680308   -0.546547539110    0.515099528706
 H    0.314268680308    0.343452460890   -1.459900471294
 H   -1.254731319692    0.570452460890   -0.679900471294
 H    0.147268680308    1.524452460890   -0.152900471294
 H   -0.156731319692   -1.515547539110    0.144099528706
 H   -0.332731319692   -0.327547539110    1.452099528706
 H    1.252444680308   -0.641757539110    0.741759528706
