22
1 1 
 C   -0.855045875228    0.191754597056   -1.765134949849
 C   -1.927045875228   -0.878245402944   -2.113134949849
 N   -1.517045875228    1.484754597056   -1.433134949849
 H   -0.230045875228   -0.160245402944   -0.939134949849
 H   -0.208045875228    0.322754597056   -2.639134949849
 H   -1.432045875228   -1.742245402944   -2.557134949849
 H   -2.604045875228   -0.473245402944   -2.868134949849
 H   -2.030045875228    1.426754597056   -0.553134949849
 H   -0.810045875228    2.212754597056   -1.328134949849
 H   -2.159045875228    1.778754597056   -2.164134949849
 H   -2.518585875228   -1.204665402944   -1.245070949849
 C    1.100954124772   -0.466245402944    1.477865050151
 C    1.100954124772   -0.993245402944    2.934865050151
 C    2.319954124772    0.452754597056    1.085865050151
 H    1.079954124772   -1.305245402944    0.783865050151
 H    0.184954124772    0.108754597056    1.330865050151
 H    0.235954124772   -1.647245402944    3.051865050151
 H    3.249954124772   -0.114245402944    1.088865050151
 H    2.162954124772    0.841754597056    0.079865050151
 H    2.400954124772    1.293754597056    1.773865050151
 H    2.010554124772   -1.590895402944    3.094381050151
 H    1.029844124772   -0.215985402944    3.709988050151
