27
0 1 
 C   -2.537327346513    0.266106085269   -3.888689665654
 C   -0.608327346513    0.551106085269   -0.053689665654
 C   -0.187327346513   -0.404893914731   -0.981689665654
 C   -1.656327346513    1.412106085269   -0.374689665654
 C   -0.814327346513   -0.492893914731   -2.226689665654
 C   -2.277327346513    1.316106085269   -1.620689665654
 C   -1.860327346513    0.366106085269   -2.552689665654
 H   -0.149327346513    0.622106085269    0.917310334346
 H    0.589672653487   -1.109893914731   -0.741689665654
 H   -2.001327346513    2.137106085269    0.349310334346
 H   -0.497327346513   -1.247893914731   -2.930689665654
 H   -3.106327346513    1.966106085269   -1.849689665654
 H   -1.900327346513   -0.280893914731   -4.583689665654
 H   -2.655327346513    1.277106085269   -4.277689665654
 H   -3.522597346513   -0.221853914731   -3.854859665654
 C    2.604672653487   -0.475893914731    1.405310334346
 C    2.880672653487    1.025106085269    1.513310334346
 C    1.503672653487   -0.903893914731    2.359310334346
 O    0.957672653487   -0.087893914731    3.098310334346
 N    1.172672653487   -2.189893914731    2.353310334346
 H    2.312672653487   -0.758893914731    0.401310334346
 H    3.512672653487   -1.024893914731    1.659310334346
 H    3.202672653487    1.267106085269    2.528310334346
 H    1.972672653487    1.579106085269    1.284310334346
 H    0.467672653487   -2.498893914731    3.009310334346
 H    1.755672653487   -2.847893914731    1.862310334346
 H    3.678582653487    1.303586085269    0.809190334346
