11
0 1 
 C    0.436330045941   -0.334600773550    0.166102893226
 C    0.606330045941    0.935399226450   -0.665897106774
 C   -1.019669954059   -0.626600773550    0.509102893226
 H    0.863330045941   -1.189600773550   -0.361897106774
 H    0.992330045941   -0.199600773550    1.096102893226
 H    0.098330045941    1.768399226450   -0.173897106774
 H   -1.491669954059    0.303399226450    0.828102893226
 H   -1.535669954059   -1.001600773550   -0.375897106774
 H    0.223890045941    0.783179226450   -1.685977106774
 H    1.669320045941    1.200239226450   -0.765487106774
 H   -1.093599954059   -1.357190773550    1.328112893226
