16
0 1 
 C    0.147820918268    1.447106277622   -2.557406607487
 C   -0.807179081732   -1.101893722378    0.110593392513
 C   -0.738179081732   -0.402893722378   -1.100406607487
 C   -0.070179081732   -0.669893722378    1.207593392513
 C    0.087820918268    0.709106277622   -1.244406607487
 C    0.755820918268    0.445106277622    1.082593392513
 C    0.832820918268    1.133106277622   -0.140406607487
 O   -0.138179081732   -1.352893722378    2.384593392513
 H   -1.450179081732   -1.963893722378    0.192593392513
 H   -1.332179081732   -0.741893722378   -1.938406607487
 H   -0.746179081732   -2.105893722378    2.294593392513
 H    1.334820918268    0.774106277622    1.932593392513
 H    0.384820918268    2.494106277622   -2.369406607487
 H   -0.843179081732    1.412106277622   -3.014406607487
 H    1.475820918268    1.998106277622   -0.224406607487
 H    0.883747918268    1.033057277622   -3.262370607487
