26
0 1 
 C   -0.056611608094    1.296977337635    0.836832727339
 C   -1.386611608094    1.970977337635    1.071832727339
 C   -1.599611608094   -0.260022662365    1.861832727339
 C    1.823388391906   -0.930022662365    0.323832727339
 C    0.472388391906   -1.168022662365    0.988832727339
 O    0.136388391906   -2.303022662365    1.332832727339
 N   -0.318611608094   -0.105022662365    1.181832727339
 H    0.255388391906    1.421977337635   -0.199167272661
 H    0.680388391906    1.715977337635    1.522832727339
 H   -2.001611608094    1.895977337635    0.173832727339
 H   -1.258611608094    3.016977337635    1.352832727339
 H   -1.484611608094   -0.827022662365    2.786832727339
 H    1.638388391906   -0.356022662365   -0.584167272661
 H   -1.838511608094    1.385777337635    1.886282727339
 H   -1.891531608094    0.774697337635    2.094502727339
 H   -2.375691608094   -0.730282662365    1.240102727339
 H    2.493138391906   -0.377042662365    0.998852727339
 H    2.276108391906   -1.886332662365    0.022972727339
 C    0.489388391906    0.914977337635   -2.933167272661
 C    0.492388391906    0.499977337635   -4.404167272661
 H    0.083388391906    0.108977337635   -2.320167272661
 H    1.505388391906    1.142977337635   -2.608167272661
 H   -0.131611608094    1.801977337635   -2.801167272661
 H    0.902388391906    1.320977337635   -4.992167272661
 H   -0.532431608094    0.287607337635   -4.742747272661
 H    1.147598391906   -0.368822662365   -4.565087272661
