26
0 1 
 C   -2.510734671959   -1.194584302639   -1.579530057691
 C   -2.558734671959   -2.477584302639   -0.742530057691
 H   -2.940734671959   -1.354584302639   -2.569530057691
 H   -3.078734671959   -0.411584302639   -1.075530057691
 H   -1.476734671959   -0.861584302639   -1.682530057691
 H   -2.182734671959   -2.211584302639    0.242469942309
 H   -1.880664671959   -3.236144302639   -1.160630057691
 H   -3.589524671959   -2.835024302639   -0.602130057691
 C   -1.074734671959    0.510415697361    1.350469942309
 C   -0.767734671959    1.183415697361    2.700469942309
 C    0.141265328041    0.429415697361    0.458469942309
 C    1.082265328041   -0.591584302639    0.631469942309
 C    0.409265328041    1.417415697361   -0.481530057691
 C    2.238265328041   -0.629584302639   -0.139530057691
 C    1.564265328041    1.376415697361   -1.241530057691
 C    2.462265328041    0.345415697361   -1.101530057691
 H   -1.428734671959   -0.501584302639    1.545469942309
 H   -1.873734671959    1.051415697361    0.839469942309
 H    0.082265328041    0.661415697361    3.145469942309
 H    0.920265328041   -1.355584302639    1.380469942309
 H   -0.269734671959    2.249415697361   -0.597530057691
 H    2.970265328041   -1.392584302639    0.017469942309
 H    1.758265328041    2.141415697361   -1.975530057691
 H    3.358265328041    0.320415697361   -1.707530057691
 H   -1.632344671959    1.108065697361    3.376319942309
 H   -0.471654671959    2.232625697361    2.553869942309
