11
0 1 
 C   -0.101092299306   -0.012391018387   -0.558451355506
 C   -1.217092299306   -0.049391018387    0.498548644494
 C    1.309907700694    0.057608981613    0.026548644494
 H   -0.164092299306   -0.909391018387   -1.167451355506
 H   -0.244092299306    0.856608981613   -1.200451355506
 H   -1.114092299306    0.825608981613    1.140548644494
 H    1.546907700694   -0.870391018387    0.543548644494
 H    2.028907700694    0.200608981613   -0.780451355506
 H    1.388907700694    0.889608981613    0.724548644494
 H   -2.199782299306    0.004415981613    0.007202644494
 H   -1.144112299306   -0.947382018387    1.129646644494
