8
0 1 
 C    0.648740343339    0.102724254827    0.384678652846
 C   -0.645259656661   -0.097275745173   -0.388321347154
 H    0.997740343339    1.130724254827    0.287678652846
 H    0.440740343339   -0.126275745173    1.421678652846
 H    1.411740343339   -0.583275745173    0.015678652846
 H   -1.000259656661   -1.106275745173   -0.182321347154
 H   -0.483305656661    0.011414254827   -1.470891327154
 H   -1.408099656661    0.608814254827   -0.028450347154
