33
0 1 
 C   -0.227891090540    2.348752640799    1.753088698560
 C    0.424108909460    2.327752640799    3.130088698560
 C    0.925108909460    2.558752640799    0.763088698560
 H   -0.975891090540    3.139752640799    1.686088698560
 H   -0.707891090540    1.396752640799    1.554088698560
 H    0.572108909460    3.349752640799    3.483088698560
 H   -0.157891090540    1.748752640799    3.847088698560
 H    0.739108909460    1.992752640799   -0.147911301440
 H    1.398418909460    1.860084640799    2.925118698560
 H    1.802738909460    2.143471640799    1.280098698560
 H    1.034828909460    3.628006640799    0.529298698560
 C   -0.461891090540   -1.451247359201    1.958088698560
 C   -1.391891090540   -2.654247359201    1.743088698560
 C    0.254108909460   -1.111247359201    0.699088698560
 C    1.552108909460   -1.389247359201    0.426088698560
 C   -0.306891090540   -0.521247359201   -0.485911301440
 C    0.729108909460   -0.493247359201   -1.461911301440
 C   -1.581891090540   -0.052247359201   -0.847911301440
 C    0.551108909460    0.041752640799   -2.724911301440
 C   -1.769891090540    0.492752640799   -2.135911301440
 C   -0.705891090540    0.501752640799   -3.063911301440
 N    1.841108909460   -1.007247359201   -0.858911301440
 H   -1.051891090540   -0.603247359201    2.295088698560
 H    0.266108909460   -1.689247359201    2.735088698560
 H   -2.107891090540   -2.378247359201    0.969088698560
 H    2.245108909460   -1.870247359201    1.110088698560
 H    2.736108909460   -1.156247359201   -1.320911301440
 H   -2.398891090540   -0.093247359201   -0.171911301440
 H    1.364108909460    0.053752640799   -3.435911301440
 H   -2.742891090540    0.861752640799   -2.425911301440
 H   -0.880891090540    0.883752640799   -4.059911301440
 H   -1.960991090540   -2.886077359201    2.655438698560
 H   -0.814851090540   -3.516597359201    1.377888698560
