9
0 1 
 C   -0.255895414323    0.892569375710    1.103564848556
 C    0.011104585677   -0.083430624290   -0.011435151444
 O   -0.435895414323   -1.223430624290    0.042564848556
 N    0.665104585677    0.375569375710   -1.063435151444
 H    0.732104585677   -0.219430624290   -1.884435151444
 H    0.901104585677    1.362569375710   -1.118435151444
 H   -0.878895414323    0.408569375710    1.855564848556
 H   -0.826895414323    1.723569375710    0.685564848556
 H    0.664044585677    1.288885375710    1.558144848556
