22
0 1 
 C   -0.635948037981    0.884469686462   -0.708444152560
 C    0.443051962019    1.857469686462   -1.166444152560
 C   -1.447948037981    1.447469686462    0.462555847440
 C   -1.534948037981    0.368469686462   -1.832444152560
 H   -0.120948037981    0.008469686462   -0.326444152560
 H   -0.024948037981    2.738469686462   -1.603444152560
 H   -1.910948037981    2.397469686462    0.193555847440
 H   -2.233948037981    0.741469686462    0.731555847440
 H   -0.826948037981    1.579469686462    1.345555847440
 H   -0.921948037981   -0.104530313538   -2.600444152560
 H   -2.172948037981   -0.412530313538   -1.421444152560
 H    1.110141962019    1.376809686462   -1.897174152560
 H    1.080731962019    2.151619686462   -0.319784152560
 H   -2.178178037981    1.119499686462   -2.314324152560
 C    0.921051962019   -1.777530313538    1.494555847440
 C    2.171051962019   -2.632530313538    1.647555847440
 H    0.499051962019   -1.913530313538    0.500555847440
 H    0.175051962019   -2.108530313538    2.215555847440
 H    1.144051962019   -0.725530313538    1.676555847440
 H    1.866051962019   -3.652530313538    1.434555847440
 H    2.951301962019   -2.335120313538    0.931485847440
 H    2.560891962019   -2.621020313538    2.676095847440
