16
0 1 
 C   -1.571706403974    0.774754405452    0.412567075198
 C   -2.278706403974    2.098754405452    0.649567075198
 H   -0.858706403974    0.573754405452    1.208567075198
 H   -2.298706403974   -0.035245594548    0.376567075198
 H   -1.036706403974    0.806754405452   -0.536432924802
 H   -2.898706403974    2.027754405452    1.543567075198
 H   -2.931706403974    2.272754405452   -0.203432924802
 H   -1.550276403974    2.913884405452    0.771797075198
 C    1.567293596026   -0.950245594548   -0.986432924802
 C    2.286293596026   -1.919245594548   -0.072432924802
 H    2.210293596026   -0.711245594548   -1.832432924802
 H    0.643293596026   -1.398245594548   -1.352432924802
 H    1.336293596026   -0.030245594548   -0.448432924802
 H    2.442293596026   -2.848245594548   -0.620432924802
 H    3.251443596026   -1.500935594548    0.249287075198
 H    1.653393596026   -2.118575594548    0.804897075198
