8
0 1 
 C   -0.437673353932    0.624975956365   -0.006489282967
 C    0.441326646068   -0.624024043635    0.009510717033
 H   -0.165673353932    1.270975956365   -0.838489282967
 H   -1.483673353932    0.336975956365   -0.123489282967
 H   -0.318673353932    1.180975956365    0.924510717033
 H    0.283326646068   -1.169024043635   -0.920489282967
 H    1.502773646068   -0.346004043635    0.087210717033
 H    0.138420646068   -1.285234043635    0.834770717033
