22
1 1 
 C   -2.081772871402    1.456784099475    0.166653673498
 C   -0.893772871402    0.083784099475    1.875653673498
 N    0.252227128598    0.183784099475    1.237653673498
 N   -1.995772871402    0.649784099475    1.388653673498
 N   -0.947772871402   -0.582215900525    2.995653673498
 H    0.358227128598    0.741784099475    0.419653673498
 H    1.100227128598   -0.235215900525    1.649653673498
 H   -2.840772871402    0.538784099475    1.939653673498
 H   -1.815772871402   -1.014215900525    3.224653673498
 H   -0.083772871402   -0.992215900525    3.373653673498
 H   -1.137772871402    1.453784099475   -0.378346326502
 H   -2.286772871402    2.497784099475    0.432653673498
 H   -2.857142871402    1.078464099475   -0.515756326502
 C    0.402227128598   -0.073215900525   -2.899346326502
 C    1.439227128598   -0.511215900525   -1.884346326502
 O    1.659227128598   -1.699215900525   -1.694346326502
 N    2.094227128598    0.458784099475   -1.246346326502
 H    2.726227128598    0.192784099475   -0.498346326502
 H    1.918227128598    1.427784099475   -1.477346326502
 H   -0.272772871402    0.655784099475   -2.456346326502
 H   -0.200772871402   -0.945215900525   -3.157346326502
 H    0.859137128598    0.316264099475   -3.821046326502
