23
0 1 
 C    2.854868585418   -1.095297175694   -0.368129366672
 C   -1.341131414582   -0.985297175694    0.595870633328
 C   -0.411131414582   -0.387297175694    1.427870633328
 C   -0.921131414582   -1.639297175694   -0.554129366672
 C    0.946868585418   -0.436297175694    1.123870633328
 C    0.450868585418   -1.723297175694   -0.849129366672
 C    1.385868585418   -1.101297175694   -0.013129366672
 H   -2.395131414582   -0.932297175694    0.835870633328
 H   -0.743131414582    0.129702824306    2.317870633328
 H   -1.644131414582   -2.088297175694   -1.220129366672
 H    1.656868585418    0.041702824306    1.782870633328
 H    0.774868585418   -2.242297175694   -1.739129366672
 H    3.109868585418   -2.037297175694   -0.857129366672
 H    3.439868585418   -1.020297175694    0.544870633328
 H    3.138318585418   -0.252829175694   -1.016129366672
 C   -1.496131414582    2.482702824306   -0.385129366672
 C   -1.373131414582    3.970702824306   -0.747129366672
 H   -2.537131414582    2.171702824306   -0.449129366672
 H   -0.900131414582    1.877702824306   -1.068129366672
 H   -1.132131414582    2.317702824306    0.628870633328
 H   -0.305131414582    4.184702824306   -0.784129366672
 H   -1.856181414582    4.571865824306    0.037260633328
 H   -1.747571414582    4.169105824306   -1.762229366672
