24
0 1 
 C    0.076627109376   -0.519664271631   -2.026452277334
 C    0.084627109376    2.132335728369   -2.942452277334
 S   -1.036372890624    0.768335728369   -2.639452277334
 H    0.693627109376   -0.133664271631   -1.216452277334
 H   -0.509372890624   -1.354664271631   -1.647452277334
 H    0.720627109376   -0.865664271631   -2.834452277334
 H   -0.400372890624    2.837335728369   -3.614452277334
 H    0.982627109376    1.756335728369   -3.429452277334
 H    0.358668109376    2.664465728369   -2.019552277334
 C    2.393627109376    0.717335728369    1.668547722666
 C   -1.264372890624   -0.120664271631    1.519547722666
 C   -1.264372890624   -1.466664271631    1.807547722666
 C   -0.073372890624    0.580335728369    1.460547722666
 C    1.125627109376   -0.059664271631    1.669547722666
 C   -0.068372890624   -2.109664271631    2.010547722666
 C    1.120627109376   -1.414664271631    1.946547722666
 H   -2.202372890624    0.389335728369    1.348547722666
 H   -2.196372890624   -2.009664271631    1.871547722666
 H   -0.090372890624    1.638335728369    1.252547722666
 H   -0.059372890624   -3.167664271631    2.236547722666
 H    2.299627109376    1.575335728369    1.000547722666
 H    3.191627109376    0.084335728369    1.277547722666
 H    2.048627109376   -1.933664271631    2.129547722666
 H    2.671312109376    1.066035728369    2.674177722666
