19
0 1 
 C   -0.437626942955   -0.929366502374   -1.568034308802
 C   -0.422626942955   -1.666366502374   -2.908034308802
 H   -0.356626942955    0.146633497626   -1.704034308802
 H   -1.365626942955   -1.158366502374   -1.048034308802
 H    0.403373057045   -1.262366502374   -0.962034308802
 H   -1.451626942955   -1.741366502374   -3.257034308802
 H   -0.047626942955   -2.661366502374   -2.739034308802
 H    0.155583057045   -1.143326502374   -3.683994308802
 C   -0.213626942955    1.192633497626    1.527965691198
 C   -0.022626942955   -0.185366502374    2.158965691198
 C    1.083373057045    1.671633497626    0.888965691198
 H   -0.980626942955    1.152633497626    0.755965691198
 H   -0.517626942955    1.906633497626    2.292965691198
 H    0.718373057045   -0.105366502374    2.955965691198
 H    0.373373057045   -0.876366502374    1.411965691198
 H    1.383373057045    0.960633497626    0.114965691198
 H    0.902373057045    2.640633497626    0.425965691198
 H   -0.933736942955   -0.616486502374    2.599435691198
 H    1.873443057045    1.767583497626    1.648295691198
