8
0 1 
 C    0.354717282969   -0.658926224618    0.154982648397
 C   -0.354282717031    0.662073775382   -0.151017351603
 H    0.298717282969   -0.892926224618    1.218982648397
 H   -0.125282717031   -1.462926224618   -0.405017351603
 H    1.400717282969   -0.593926224618   -0.137017351603
 H   -0.280282717031    0.856073775382   -1.223017351603
 H    0.121072282969    1.490063775382    0.395312648397
 H   -1.420115717031    0.566163775382    0.103542648397
