37
0 1 
 C   -2.282805372950    0.039879170001    1.059220118598
 C   -3.059805372950    0.897879170001    2.084220118598
 C   -0.816805372950    0.343879170001    1.129220118598
 C    0.140194627050   -0.371120829999    1.760220118598
 C   -0.184805372950    1.518879170001    0.624220118598
 C    1.178194627050    1.454879170001    1.000220118598
 C   -0.636805372950    2.635879170001   -0.105779881402
 C    2.065194627050    2.449879170001    0.671220118598
 C    0.270194627050    3.645879170001   -0.433779881402
 C    1.608194627050    3.544879170001   -0.045779881402
 N    1.359194627050    0.283879170001    1.694220118598
 H   -2.416805372950   -1.004120829999    1.332220118598
 H   -2.591805372950    0.174879170001    0.016220118598
 H   -2.653805372950    1.908879170001    2.068220118598
 H   -0.134805372950   -1.310120829999    2.223220118598
 H    2.239194627050   -0.031120829999    2.086220118598
 H   -1.667805372950    2.738879170001   -0.420779881402
 H    3.088194627050    2.333879170001    0.986220118598
 H   -0.084805372950    4.502879170001   -0.990779881402
 H    2.297194627050    4.329879170001   -0.307779881402
 H   -2.962705372950    0.504239170001    3.106780118598
 H   -4.102855372950    1.081859170001    1.787240118598
 C    2.392194627050   -2.506120829999   -0.421779881402
 C   -0.802805372950   -1.056120829999   -2.049779881402
 C    0.513194627050   -1.160120829999   -1.536779881402
 C   -1.621805372950   -2.183120829999   -2.095779881402
 C    1.009194627050   -2.382120829999   -1.056779881402
 C   -1.131805372950   -3.397120829999   -1.635779881402
 C    0.172194627050   -3.496120829999   -1.116779881402
 H   -1.185805372950   -0.108120829999   -2.407779881402
 H    1.148194627050   -0.286120829999   -1.504779881402
 H   -2.628805372950   -2.117120829999   -2.488779881402
 H   -1.768805372950   -4.268120829999   -1.680779881402
 H    2.662194627050   -3.564120829999   -0.436779881402
 H    2.294194627050   -2.189120829999    0.619220118598
 H    0.540194627050   -4.446120829999   -0.755779881402
 H    3.197864627050   -1.956700829999   -0.930739881402
