16
0 1 
 C   -2.030676183861    0.260263125819    1.010581072633
 C   -1.407676183861   -1.077736874181    1.374581072633
 H   -3.099676183861    0.144263125819    0.819581072633
 H   -1.884676183861    0.961263125819    1.832581072633
 H   -1.550676183861    0.665263125819    0.121581072633
 H   -0.355676183861   -0.916736874181    1.620581072633
 H   -1.467316183861   -1.763982874181    0.516981072633
 H   -1.917976183861   -1.503704874181    2.250981072633
 C    1.336323816139    0.043263125819   -0.642418927367
 C    2.093323816139    0.772263125819   -1.747418927367
 H    0.378323816139   -0.307736874181   -1.020418927367
 H    1.921323816139   -0.812736874181   -0.304418927367
 H    1.175323816139    0.712263125819    0.204581072633
 H    3.090323816139    0.987263125819   -1.365418927367
 H    1.607743816139    1.729313125819   -1.988818927367
 H    2.206603816139    0.128458125819   -2.632118927367
