29
0 1 
 C    0.629430809105   -0.549661212925   -0.096379897994
 C    1.937430809105   -1.328661212925   -0.347379897994
 C    0.414430809105   -1.944661212925   -2.094379897994
 C   -1.718569190895    1.016338787075   -1.017379897994
 C   -1.142569190895   -0.122661212925   -1.858379897994
 O   -1.624569190895   -0.391661212925   -2.972379897994
 N   -0.158569190895   -0.835661212925   -1.315379897994
 H    0.122430809105   -0.948661212925    0.781620102006
 H    0.847430809105    0.512338787075    0.023620102006
 H    2.442430809105   -1.605661212925    0.571620102006
 H    2.603430809105   -0.724661212925   -0.966379897994
 H    0.913430809105   -1.540661212925   -2.976379897994
 H   -0.903569190895    1.592338787075   -0.577379897994
 H    1.597395809105   -2.201611212925   -0.923867897994
 H    1.166189809105   -2.379781212925   -1.419447897994
 H   -0.327384190895   -2.694431212925   -2.406722897994
 H   -2.294035190895    1.648368787075   -1.709748897994
 H   -2.382068190895    0.626548787075   -0.231355897994
 C   -0.050569190895    1.153338787075    3.261620102006
 C    1.283430809105    0.482338787075    3.720620102006
 C    0.279430809105    2.491338787075    2.616620102006
 H   -0.558569190895    0.510338787075    2.543620102006
 H   -0.713569190895    1.327338787075    4.107620102006
 H    1.862430809105    1.200338787075    4.303620102006
 H    1.871430809105    0.223338787075    2.838620102006
 H    0.771430809105    3.142338787075    3.342620102006
 H    0.999430809105    2.314338787075    1.814620102006
 H    1.130155809105   -0.423771212925    4.325166702006
 H   -0.599376190895    2.987597787075    2.179099102006
