8
0 1 
 C   -0.633100412282   -0.264137839980    0.341636498313
 C    0.634899587718    0.260862160020   -0.338363501687
 H   -0.738100412282    0.183862160020    1.329636498313
 H   -1.504100412282   -0.002137839980   -0.259363501687
 H   -0.581100412282   -1.349137839980    0.445636498313
 H    0.553899587718    1.344862160020   -0.416363501687
 H    1.548911587718    0.008772160020    0.219336498313
 H    0.699067587718   -0.147217839980   -1.357853501687
