8
1 1 
 C   -0.427473754592    0.576640354108   -0.327048955635
 N    0.381526245408   -0.511359645892    0.284951044365
 H    1.339526245408   -0.516359645892   -0.052048955635
 H    0.435526245408   -0.387359645892    1.291951044365
 H   -0.040473754592   -1.419359645892    0.121951044365
 H    0.026526245408    1.557640354108   -0.147048955635
 H   -1.424473754592    0.586640354108    0.128951044365
 H   -0.547833754592    0.417850354108   -1.408848955635
