22
1 1 
 C    0.323957105306    1.001296631349    2.630485345850
 C   -0.046042894694    2.015296631349    1.569485345850
 O   -0.814042894694    1.727296631349    0.654485345850
 N    0.522957105306    3.200296631349    1.671485345850
 H    0.466957105306    1.508296631349    3.586485345850
 H    1.273957105306    0.549296631349    2.341485345850
 H    0.353957105306    3.909296631349    0.968485345850
 H    1.191957105306    3.362296631349    2.401485345850
 H   -0.438432894694    0.216628631349    2.744736345850
 C   -0.862042894694   -3.326703368651   -1.768514654150
 C    0.211957105306   -1.176703368651   -1.185514654150
 N   -0.962042894694   -0.580703368651   -1.108514654150
 N    0.290957105306   -2.462703368651   -1.487514654150
 N    1.307957105306   -0.483703368651   -0.959514654150
 H   -1.800042894694   -1.094703368651   -1.314514654150
 H   -1.021042894694    0.375296631349   -0.769514654150
 H    1.210957105306   -2.873703368651   -1.559514654150
 H    2.212957105306   -0.925703368651   -1.029514654150
 H    1.254957105306    0.510296631349   -0.807514654150
 H   -0.670042894694   -3.844703368651   -2.710514654150
 H   -1.790042894694   -2.770703368651   -1.904514654150
 H   -1.010322894694   -4.091248368651   -0.991672794150
