16
0 1 
 C    1.559345563105    0.022368628284   -0.879863104933
 C    2.824345563105   -0.290631371716   -1.666863104933
 H    1.742345563105   -0.071631371716    0.193136895067
 H    1.238345563105    1.038368628284   -1.093863104933
 H    0.758345563105   -0.659631371716   -1.174863104933
 H    2.618345563105   -0.144631371716   -2.723863104933
 H    3.113624563105   -1.337647371716   -1.493443104933
 H    3.634431563105    0.390331628284   -1.366773104933
 C   -1.552654436895   -0.241631371716    1.097136895067
 C   -2.829654436895    0.507368628284    1.454136895067
 H   -1.790654436895   -1.159631371716    0.557136895067
 H   -0.934654436895    0.391368628284    0.463136895067
 H   -0.985654436895   -0.495631371716    1.990136895067
 H   -2.572654436895    1.466368628284    1.902136895067
 H   -3.433414436895   -0.085639371716    2.156856895067
 H   -3.404864436895    0.698076628284    0.536116895067
