8
0 1 
 C   -0.453012729533   -0.118366381460   -0.601092362280
 C    0.449987270467    0.116633618540    0.602907637720
 H   -1.490012729533   -0.238366381460   -0.288092362280
 H   -0.382012729533    0.731633618540   -1.278092362280
 H   -0.133012729533   -1.013366381460   -1.134092362280
 H    1.468987270467    0.283633618540    0.254907637720
 H    0.435597270467   -0.758266381460    1.269497637720
 H    0.136477270467    1.015363618540    1.154257637720
