7
-1 1 
 C    1.171221168854    0.180245743359    0.784445390607
 C   -0.067778831146   -0.005754256641   -0.062554609393
 O   -0.081778831146    0.400245743359   -1.240554609393
 O   -1.023778831146   -0.575754256641    0.506445390607
 H    1.333221168854   -0.702754256641    1.404445390607
 H    0.993221168854    1.027245743359    1.450445390607
 H    2.081061168854    0.383315743359    0.200525390607
