17
0 1 
 C    1.540127627822   -1.169379619769    1.180668200418
 C    2.255127627822   -1.287379619769    2.526668200418
 H    2.053127627822   -0.441379619769    0.553668200418
 H    1.551127627822   -2.136379619769    0.678668200418
 H    0.510127627822   -0.857379619769    1.341668200418
 H    3.277127627822   -1.594379619769    2.350668200418
 H    1.731267627822   -2.008399619769    3.171418200418
 H    2.315377627822   -0.298679619769    3.005048200418
 C   -0.925872372178    0.707620380231   -0.742331799582
 C   -0.762872372178   -0.054379619769   -2.042331799582
 O   -1.917872372178    1.702620380231   -0.895331799582
 H   -1.217872372178    0.020620380231    0.051668200418
 H    0.021127627822    1.141620380231   -0.476331799582
 H    0.035127627822   -0.782379619769   -1.892331799582
 H   -2.743872372178    1.394620380231   -0.467331799582
 H   -0.501454372178    0.648740380231   -2.846871799582
 H   -1.675045372178   -0.634259619769   -2.246481799582
