8
0 1 
 C    0.281871797037   -0.393588091930    0.587599283357
 C   -0.289128202963    0.391411908070   -0.587400716643
 H   -0.449128202963   -1.110588091930    0.965599283357
 H    1.176871797037   -0.919588091930    0.260599283357
 H    0.560871797037    0.292411908070    1.388599283357
 H    0.493871797037    1.047411908070   -0.971400716643
 H   -1.130498202963    1.011681908070   -0.244820716643
 H   -0.565588202963   -0.295418091930   -1.400940716643
