15
0 1 
 C    1.907842895879    0.916650416003   -1.231443898275
 C   -1.446157104121   -0.677349583997    0.949556101725
 C   -0.146157104121   -1.101349583997    1.247556101725
 C   -1.664157104121    0.246650416003   -0.064443898275
 C    0.943842895879   -0.599349583997    0.531556101725
 C   -0.571157104121    0.757650416003   -0.794443898275
 C    0.734842895879    0.333650416003   -0.490443898275
 H   -2.283157104121   -1.079349583997    1.498556101725
 H    0.014842895879   -1.831349583997    2.029556101725
 H   -2.670157104121    0.571650416003   -0.296443898275
 H    1.942842895879   -0.925349583997    0.783556101725
 H   -0.743157104121    1.481650416003   -1.580443898275
 H    2.528842895879    1.421650416003   -0.492443898275
 H    1.570842895879    1.669650416003   -1.945443898275
 H    2.509832895879    0.161310416003   -1.757825898275
