19
0 1 
 C   -0.329799253945   -1.508155448727   -0.314439203156
 C    1.150200746055   -1.816155448727   -0.398439203156
 C   -0.938799253945   -2.147155448727   -1.524439203156
 H   -0.480799253945   -0.433155448727   -0.372439203156
 H   -0.752799253945   -1.897155448727    0.609560796844
 H    1.733200746055   -0.986155448727    0.000560796844
 H    1.362200746055   -2.735155448727    0.147560796844
 H   -1.891799253945   -1.685155448727   -1.790439203156
 H   -1.084799253945   -3.211155448727   -1.330439203156
 H    1.332530746055   -1.964855448727   -1.472983203156
 H   -0.160879253945   -2.027865448727   -2.292955803156
 C   -0.001799253945    1.936844551273    0.961560796844
 C    0.090200746055    3.435844551273    1.267560796844
 H   -0.569799253945    1.776844551273    0.047560796844
 H    0.994200746055    1.522844551273    0.813560796844
 H   -0.484799253945    1.411844551273    1.787560796844
 H    0.487200746055    3.931844551273    0.382560796844
 H   -0.913099253945    3.837454551273    1.472715796844
 H    0.786600746055    3.635944551273    2.095203796844
