26
0 1 
 C    2.268779558581   -0.393369013412    1.972422479524
 C   -0.776220441419   -1.446369013412    0.010422479524
 C   -0.216220441419   -1.655369013412   -1.244577520476
 C    0.038779558581   -1.023369013412    1.060422479524
 C    1.394779558581   -0.870369013412    0.857422479524
 C    1.123779558581   -1.520369013412   -1.448577520477
 C    1.919779558581   -1.131369013412   -0.396577520476
 H   -1.838220441419   -1.581369013412    0.162422479523
 H   -0.851220441419   -1.963369013412   -2.064577520476
 H   -0.395220441419   -0.842369013412    2.032422479523
 H    1.554779558581   -1.716369013412   -2.419577520476
 H    3.172779558581   -0.985369013412    1.968422479523
 H    1.764779558581   -0.600369013412    2.918422479524
 H    2.982779558581   -1.021369013412   -0.561577520476
 H    2.516349558581    0.677763986588    1.935212479524
 C   -2.283220441419    2.069630986588   -0.297577520477
 C   -1.428220441419    2.371630986588    0.952422479523
 C   -1.645220441419    2.661630986588   -1.586577520477
 H   -2.359220441419    0.987630986588   -0.411577520477
 H   -3.289220441419    2.472630986588   -0.166577520476
 H   -0.426220441419    1.983630986588    0.760422479524
 H   -1.655220441419    3.751630986588   -1.543577520476
 H   -0.604220441419    2.338630986588   -1.621577520476
 H   -1.811790441419    1.875911986588    1.856382479523
 H   -1.367600441419    3.457674986588    1.116232479523
 H   -2.117890441419    2.329992986588   -2.522847520476
