22
0 1 
 C    2.492625097933    0.577248212380    0.115770202335
 C    0.020625097933    0.150248212380   -0.141229797665
 C    1.238625097933   -0.205751787620    0.426770202335
 C   -1.134374902067   -0.566751787620    0.118770202335
 C   -1.082374902067   -1.656751787620    0.973770202335
 C    1.276625097933   -1.307751787620    1.280770202335
 C    0.122625097933   -2.031751787620    1.553770202335
 O   -2.209374902067   -2.365751787620    1.234770202335
 H   -0.063374902067    1.044248212380   -0.663229797665
 H   -2.080374902067   -0.241751787620   -0.276229797665
 H    3.116625097933    0.648248212380    1.007770202335
 H    2.199625097933    1.591248212380   -0.161229797665
 H    2.208625097933   -1.605751787620    1.739770202335
 H   -2.900374902067   -2.214751787620    0.553770202335
 H    0.140625097933   -2.891751787620    2.187770202335
 H    3.074936097933    0.141598212380   -0.709529797665
 C   -0.343374902067    3.873248212380   -2.485229797665
 O   -0.045374902067    2.530248212380   -2.183229797665
 H    0.472625097933    2.142248212380   -2.903229797665
 H    0.585625097933    4.446248212380   -2.479229797665
 H   -0.993374902067    4.281248212380   -1.720229797665
 H   -0.827273902067    3.955588212380   -3.469639797665
