13
1 1 
 C   -0.030329048488    1.398501417237   -1.397522860444
 C    0.018670951512   -0.363498582763    0.322477139556
 N   -0.595329048488    0.267501417237   -0.670522860444
 N    1.246670951512    0.008501417237    0.726477139556
 N   -0.666329048488   -1.300498582763    0.977477139556
 H   -1.535329048488   -0.051498582763   -0.932522860444
 H    0.577670951512    1.046501417237   -2.233522860444
 H    0.575670951512    2.032501417237   -0.746522860444
 H    1.752670951512    0.738501417237    0.253477139556
 H    1.693670951512   -0.458498582763    1.504477139556
 H   -1.601329048488   -1.563498582763    0.644477139556
 H   -0.245329048488   -1.829498582763    1.731477139556
 H   -0.870649048488    1.996591417237   -1.779812860444
