23
0 1 
 C   -1.655935772300    1.906693622418    0.884784258265
 C   -1.908935772300    3.397693622418    0.677784258265
 C   -1.305935772300    1.624693622418    2.348784258265
 H   -2.551935772300    1.352693622418    0.620784258265
 H   -0.838935772300    1.591693622418    0.243784258265
 H   -1.146935772300    3.960693622418    1.217784258265
 H   -1.974935772300    2.216693622418    2.974784258265
 H   -1.462935772300    0.567693622418    2.562784258265
 H   -2.911355772300    3.630293622418    1.066444258265
 H   -1.801325772300    3.704593622418   -0.373025741735
 H   -0.262015772300    1.886573622418    2.576034258265
 C    1.474064227700   -2.252306377582    1.186784258265
 C    0.586064227700    0.013693622418   -1.538215741735
 C    1.051064227700   -1.603306377582   -0.111215741735
 C    0.714064227700   -2.169306377582   -1.305215741735
 N    0.961064227700   -0.234306377582   -0.289215741735
 N    0.431064227700   -1.146306377582   -2.173215741735
 H    0.448064227700    1.023693622418   -1.907215741735
 H    0.154064227700   -1.261306377582   -3.136215741735
 H    0.654064227700   -3.199306377582   -1.603215741735
 H    2.418064227700   -1.790306377582    1.477784258265
 H    1.640064227700   -3.304306377582    0.972784258265
 H    0.742524227700   -2.125426377582    1.998424258265
