15
0 1 
 C    1.421334611140    0.742626200818    1.823244283283
 C   -1.623665388860   -0.310373799182   -0.138755716717
 C   -1.063665388860   -0.519373799182   -1.393755716717
 C   -0.808665388860    0.112626200818    0.911244283283
 C    0.547334611140    0.265626200818    0.708244283283
 C    0.276334611140   -0.384373799182   -1.597755716717
 C    1.072334611140    0.004626200818   -0.545755716717
 H   -2.685665388860   -0.445373799182    0.013244283283
 H   -1.698665388860   -0.827373799182   -2.213755716717
 H   -1.242665388860    0.293626200818    1.883244283283
 H    0.707334611140   -0.580373799182   -2.568755716717
 H    2.325334611140    0.150626200818    1.819244283283
 H    0.917334611140    0.535626200818    2.769244283283
 H    2.135334611140    0.114626200818   -0.710755716717
 H    1.668904611140    1.813759200818    1.786034283283
