19
-1 1 
 C    2.189631508891    0.285297513667    1.705185546182
 C    2.336631508891    0.582297513667    0.213185546182
 O    3.068631508891   -0.106702486333   -0.515814453818
 N    1.638631508891    1.603297513667   -0.266814453818
 H    2.938631508891   -0.408702486333    2.014185546182
 H    1.216631508891   -0.162702486333    1.888185546182
 H    1.689631508891    1.778297513667   -1.259814453818
 H    0.976631508891    2.101297513667    0.307185546182
 H    2.300241508891    1.154990513667    2.369565546182
 C   -0.972368491109   -0.892702486333   -0.728814453818
 C   -0.591368491109   -1.910702486333    0.346185546182
 C   -2.237368491109   -0.093702486333   -0.355814453818
 O   -2.707368491109    0.702297513667   -1.212814453818
 O   -2.738368491109   -0.248702486333    0.787185546182
 H   -0.149368491109   -0.196702486333   -0.865814453818
 H   -1.129368491109   -1.402702486333   -1.681814453818
 H   -0.490368491109   -1.389702486333    1.299185546182
 H    0.350116508891   -2.417830986333    0.088455546182
 H   -1.378436491109   -2.673398886333    0.440085546182
