16
0 1 
 C   -1.249618410264   -0.908165871733    0.831339036844
 C   -2.600618410264   -1.386165871733    1.357339036844
 H   -0.432618410264   -1.494165871733    1.234339036844
 H   -1.229618410264   -0.983165871733   -0.253660963156
 H   -1.095618410264    0.134834128267    1.114339036844
 H   -2.782618410264   -2.393165871733    0.987339036844
 H   -2.593468410264   -1.383305871733    2.457309036844
 H   -3.397348410264   -0.730245871733    0.976569036844
 C    1.978381589736    0.547834128267   -0.624660963156
 C    1.874381589736    1.748834128267   -1.557660963156
 H    2.786381589736    0.693834128267    0.086339036844
 H    1.042381589736    0.396834128267   -0.089660963156
 H    2.194381589736   -0.341165871733   -1.215660963156
 H    1.111381589736    1.530834128267   -2.306660963156
 H    2.838411589736    1.907494128267   -2.063100963156
 H    1.528271589736    2.633564128267   -1.003170963156
