19
0 1 
 C    1.727685314407   -1.698870782360    0.414213456198
 C    2.530685314407   -1.110870782360    1.570213456198
 H    0.659685314407   -1.600870782360    0.604213456198
 H    1.978685314407   -1.188870782360   -0.517786543802
 H    1.957685314407   -2.756870782360    0.302213456198
 H    3.590685314407   -1.293870782360    1.381213456198
 H    2.232223314407   -1.590970782360    2.513833456198
 H    2.351917314407   -0.027410782360    1.634623456198
 C   -0.943314685593    0.761129217640   -0.528786543802
 C   -1.860314685593    0.025129217640   -1.507786543802
 C   -1.521314685593    2.076129217640    0.014213456198
 H   -0.780314685593    0.112129217640    0.328213456198
 H    0.020685314407    0.956129217640   -1.000786543802
 H   -2.857314685593   -0.043870782360   -1.073786543802
 H   -0.855314685593    2.454129217640    0.792213456198
 H   -1.528314685593    2.823129217640   -0.780786543802
 H   -1.486018685593   -0.990820782360   -1.702086543802
 H   -1.958127685593    0.578677217640   -2.453306543802
 H   -2.533483685593    1.942514217640    0.423673456198
