31
0 1 
 C    0.455962955135    2.629656356887    2.048190773493
 C   -0.817037044865    0.497656356887    2.326190773493
 C   -0.812037044865    1.852656356887    2.049190773493
 C   -2.006037044865   -0.197343643113    2.390190773493
 C   -3.202037044865    0.445656356887    2.187190773493
 C   -2.011037044865    2.492656356887    1.840190773493
 C   -3.202037044865    1.791656356887    1.899190773493
 H    0.110962955135   -0.021343643113    2.509190773493
 H   -1.997037044865   -1.255343643113    2.616190773493
 H    0.361962955135    3.487656356887    1.380190773493
 H    1.253962955135    1.996656356887    1.657190773493
 H   -4.134037044865   -0.097343643113    2.251190773493
 H   -2.028037044865    3.550656356887    1.632190773493
 H   -4.140037044865    2.301656356887    1.728190773493
 H    0.733647955135    2.978356356887    3.053820773493
 C    3.781962955135    0.072656356887   -0.649809226507
 C    1.382962955135   -0.665343643113   -0.494809226507
 C    2.565962955135   -0.601343643113   -1.232809226507
 C    0.227962955135   -1.233343643113   -1.032809226507
 C    0.245962955135   -1.755343643113   -2.328809226507
 C    2.574962955135   -1.138343643113   -2.531809226507
 C    1.431962955135   -1.724343643113   -3.058809226507
 O   -0.863037044865   -2.280343643113   -2.925809226507
 H    1.354962955135   -0.252343643113    0.504190773493
 H   -0.685037044865   -1.254343643113   -0.454809226507
 H    3.449962955135    0.775656356887    0.113190773493
 H    4.260962955135    0.667656356887   -1.428809226507
 H    3.478962955135   -1.096343643113   -3.125809226507
 H   -1.652037044865   -2.200343643113   -2.359809226507
 H    1.449962955135   -2.160343643113   -4.044809226507
 H    4.525649955135   -0.606233643113   -0.207049226507
