15
0 1 
 C   -1.682071046100   -0.374997709757   -0.472402983381
 C   -2.126071046100   -1.467997709757    0.499597016619
 C   -0.278071046100    0.058002290243   -0.262402983381
 C    0.889928953900   -0.525997709757   -0.632402983381
 C    1.347928953900    1.168002290243    0.490597016619
 N    0.045928953900    1.130002290243    0.463597016619
 N    1.905928953900    0.260002290243   -0.172402983381
 H   -1.761071046100   -0.753997709757   -1.492402983381
 H   -2.342071046100    0.489002290243   -0.388402983381
 H   -1.432071046100   -2.307997709757    0.449597016619
 H    0.986928953900   -1.440997709757   -1.203402983381
 H    1.787928953900    1.126002290243    1.486597016619
 H    2.895928953900    0.047002290243   -0.122402983381
 H   -3.129921046100   -1.792767709757    0.188449816619
 H   -2.117401046100   -1.070087709757    1.525068216619
