7
-1 1 
 C   -1.138785248065   -0.729842314748    0.507939974070
 C    0.072214751935    0.038157685252   -0.018060025930
 O    1.211214751935   -0.477842314748    0.025939974070
 O   -0.136785248065    1.170157685252   -0.510060025930
 H   -1.603785248065   -1.242842314748   -0.337060025930
 H   -1.871785248065   -0.030842314748    0.916939974070
 H   -0.876933248065   -1.478092314748    1.270539974070
