34
0 1 
 C    1.869968534910    3.380160017798    2.692788044574
 C   -0.307031465090    0.757160017798    1.044788044574
 C    0.094968534910    2.119160017798    1.207788044574
 C    1.179968534910    2.144160017798    2.175788044574
 C    1.388968534910    0.845160017798    2.550788044574
 C   -1.333031465090    0.371160017798    0.178788044574
 C   -1.974031465090    1.368160017798   -0.570211955426
 C   -1.602031465090    2.722160017798   -0.439211955426
 C   -0.579031465090    3.106160017798    0.450788044574
 N    0.493968534910    0.001160017798    1.875788044574
 H   -1.597031465090   -0.678839982202    0.108788044574
 H   -2.764031465090    1.096160017798   -1.256211955426
 H    0.428968534910   -1.007839982202    1.967788044574
 H   -2.101031465090    3.484160017798   -1.022211955426
 H    2.160968534910    0.617160017798    3.282788044574
 H   -0.312031465090    4.152160017798    0.527788044574
 H    1.790968534910    4.143160017798    1.909788044574
 H    2.920968534910    3.137160017798    2.837788044574
 H    1.481778534910    3.742560017798    3.656098044574
 C    2.280968534910   -1.322839982202   -1.637211955426
 C   -0.001031465090   -1.709839982202   -2.656211955426
 C    0.910968534910   -1.968839982202   -1.621211955426
 C   -1.253031465090   -2.323839982202   -2.663211955426
 C    0.559968534910   -2.860839982202   -0.590211955426
 C   -1.602031465090   -3.222839982202   -1.636211955426
 C   -0.700031465090   -3.501839982202   -0.590211955426
 H    0.267968534910   -1.029839982202   -3.453211955426
 H   -1.951031465090   -2.106839982202   -3.461211955426
 H    2.510968534910   -1.027839982202   -0.613211955426
 H    2.204968534910   -0.424839982202   -2.254211955426
 H    1.266968534910   -3.055839982202    0.200788044574
 H   -2.573031465090   -3.703839982202   -1.649211955426
 H   -0.981031465090   -4.196839982202    0.195788044574
 H    3.068088534910   -1.995879982202   -2.007961955426
