22
0 1 
 C   -0.343409122774   -0.719055279296    2.530362757641
 C   -1.273409122774   -1.922055279296    2.315362757641
 C    0.372590877226   -0.379055279296    1.271362757641
 C    1.670590877226   -0.657055279296    0.998362757641
 C   -0.188409122774    0.210944720704    0.086362757641
 C    0.847590877226    0.238944720704   -0.889637242359
 C   -1.463409122775    0.679944720704   -0.275637242359
 C    0.669590877226    0.773944720704   -2.152637242359
 C   -1.651409122774    1.224944720704   -1.563637242359
 C   -0.587409122774    1.233944720704   -2.491637242359
 N    1.959590877226   -0.275055279296   -0.286637242359
 H   -0.933409122774    0.128944720704    2.867362757641
 H    0.384590877225   -0.957055279296    3.307362757641
 H   -1.989409122774   -1.646055279296    1.541362757641
 H    2.363590877226   -1.138055279296    1.682362757641
 H    2.854590877226   -0.424055279296   -0.748637242359
 H   -2.280409122774    0.638944720704    0.400362757641
 H    1.482590877226    0.785944720704   -2.863637242359
 H   -2.624409122774    1.593944720704   -1.853637242359
 H   -0.762409122774    1.615944720704   -3.487637242359
 H   -1.842509122774   -2.153885279296    3.227712757641
 H   -0.696369122774   -2.784405279296    1.950162757641
