19
0 1 
 C   -2.060732862798   -0.663309038216   -0.765286148233
 C   -2.714732862798   -1.221309038216   -2.039286148233
 H   -1.551732862798    0.274690961784   -0.996286148233
 H   -2.826732862798   -0.476309038216   -0.011286148233
 H   -1.338732862798   -1.380309038216   -0.375286148233
 H   -3.428732862798   -0.479309038216   -2.392286148233
 H   -1.969382862798   -1.420879038216   -2.823266148233
 H   -3.245942862798   -2.155439038216   -1.804316148233
 C    1.124267137202    0.397690961784    1.101713851767
 C    1.484267137202    1.843690961784    1.468713851767
 C    2.248267137202   -0.328309038216    0.304713851767
 H    0.925267137202   -0.132309038216    2.035713851767
 H    0.211267137202    0.407690961784    0.503713851767
 H    1.901267137202    2.337690961784    0.590713851767
 H    3.203267137202   -0.180309038216    0.806713851767
 H    2.219627137202    1.842190961784    2.286783851767
 H    0.571747137202    2.381690961784    1.765173851767
 H    2.018327137202   -1.403989038216    0.299013851767
 H    2.342037137202    0.046090961784   -0.725356148233
