7
-1 1 
 C    1.231900863922    0.556891702413    0.475280666833
 C   -0.058099136078   -0.046108297587   -0.017719333167
 O   -0.047099136078   -0.935108297587   -0.917719333167
 O   -1.127099136078    0.413891702413    0.463280666833
 H    1.109900863922    0.959891702413    1.481280666833
 H    1.480900863922    1.387891702413   -0.186719333167
 H    2.068320863922   -0.157508297587    0.469605666833
