8
0 1 
 C   -0.065843982303   -0.741738150702    0.181023814589
 C    0.057156017697    0.746261849298   -0.180976185411
 H   -1.106843982303   -1.052738150702    0.117023814589
 H    0.530156017697   -1.346738150702   -0.501976185411
 H    0.298156017697   -0.906738150702    1.195023814589
 H    1.125156017697    0.960261849298   -0.217976185411
 H   -0.425893982303    1.347424849298    0.603413814589
 H   -0.317283982303    0.944664849298   -1.196076185411
