19
0 1 
 C   -0.706382843850    2.892614974610    0.039152779232
 C    0.587617156150   -0.598385025390   -0.456847220768
 C   -0.272382843850    0.304614974610    0.235152779232
 C   -0.029382843850    1.612614974610   -0.308847220768
 C    0.927617156150    1.451614974610   -1.257847220768
 C    0.609617156150   -1.965385025390   -0.196847220768
 C   -0.234382843850   -2.437385025390    0.795152779232
 C   -1.131382843850   -0.196385025390    1.216152779232
 C   -1.101382843850   -1.562385025390    1.480152779232
 N    1.316617156150    0.136614974610   -1.356847220768
 H    1.887617156150   -0.259385025390   -2.098847220768
 H    1.262617156150   -2.627385025390   -0.743847220768
 H    1.287617156150    2.254614974610   -1.887847220768
 H   -0.246382843850   -3.491385025390    1.018152779232
 H   -1.839382843850    0.453614974610    1.696152779232
 H   -1.734382843850    2.650614974610    0.310152779232
 H   -0.777382843850    3.481614974610   -0.876847220768
 H   -1.764382843850   -1.970385025390    2.214152779232
 H   -0.289952843850    3.545043974610    0.820772779232
