7
-1 1 
 C    0.489821046980    1.083627030516   -0.809959661417
 C   -0.042178953020   -0.054372969484    0.049040338583
 O   -0.207178953020    0.141627030516    1.260040338583
 O   -0.250178953020   -1.169372969484   -0.492959661417
 H   -0.054178953020    1.127627030516   -1.755959661417
 H    1.533821046980    0.862627030516   -1.041959661417
 H    0.448962046980    2.065668030516   -0.316071661417
