23
0 1 
 C   -2.613432442681   -2.079673810771    2.238567526101
 C   -1.820432442681   -3.322673810771    1.881567526101
 H   -1.974432442681   -1.330673810771    2.708567526101
 H   -3.052432442681   -1.644673810771    1.339567526101
 H   -3.423432442681   -2.341673810771    2.919567526101
 H   -0.970432442681   -3.026673810771    1.268567526101
 H   -1.460892442681   -3.806113810771    2.801901526101
 H   -2.443312442681   -4.017773810771    1.299453526101
 C    2.767567557319    2.179326189229   -1.037432473899
 C   -0.835432442681   -0.102673810771   -0.390432473899
 C   -0.684432442681    0.673326189229   -1.541432473899
 C    0.197567557319   -0.144673810771    0.543567526101
 C    0.482567557319    1.410326189229   -1.747432473899
 C    1.368567557319    0.600326189229    0.328567526101
 C    1.516567557319    1.376326189229   -0.817432473899
 H   -1.744432442681   -0.664673810771   -0.234432473899
 H   -1.485432442681    0.721326189229   -2.264432473899
 H    0.096567557319   -0.738673810771    1.439567526101
 H    0.582567557319    2.013326189229   -2.634432473899
 H    2.158567557319    0.569326189229    1.066567526101
 H    3.183567557319    2.477326189229   -0.073432473899
 H    2.478567557319    3.097326189229   -1.555432473899
 H    3.540987557319    1.668036189229   -1.629379473899
