8
0 1 
 C    0.077952191621    0.351784842584   -0.674167618306
 C   -0.080047808379   -0.344215157416    0.677832381694
 H   -0.000047808379    1.432784842584   -0.553167618306
 H    1.060952191621    0.123784842584   -1.082167618306
 H   -0.670047808379    0.003784842584   -1.386167618306
 H   -0.199047808379   -1.409215157416    0.468832381694
 H   -0.983538808379   -0.000095157416    1.202512381694
 H    0.816682191621   -0.241175157416    1.306522381694
