8
0 1 
 C    0.090601966691   -0.354647812415   -0.655360875815
 C   -0.090398033309    0.355352187585    0.648639124185
 H    0.934601966691    0.078352187585   -1.187360875815
 H    0.285601966691   -1.408647812415   -0.464360875815
 H   -0.813398033309   -0.248647812415   -1.249360875815
 H    0.816601966691    0.237352187585    1.238639124185
 H   -0.928398033309   -0.099647812415    1.172639124185
 H   -0.297438033309    1.432852187585    0.569839124185
