16
0 1 
 C    0.277642233662   -0.235129433982    1.892579362944
 C    0.704642233662   -0.049129433982    3.349579362944
 H    1.039642233662   -0.765129433982    1.326579362944
 H   -0.639357766338   -0.826129433982    1.863579362944
 H    0.082642233662    0.729870566018    1.428579362944
 H    0.952642233662   -1.019129433982    3.780579362944
 H   -0.148357766338    0.362870566018    3.888579362944
 H    1.570669233662    0.626110566018    3.413169362944
 C   -0.294357766338    0.020870566018   -1.871420637056
 C   -0.686357766338    0.269870566018   -3.363420637056
 H   -1.168357766338    0.145870566018   -1.231420637056
 H    0.079642233662   -0.997129433982   -1.763420637056
 H    0.490642233662    0.707870566018   -1.553420637056
 H    0.224642233662    0.190870566018   -3.951420637056
 H   -1.129404266338    1.262000566018   -3.534830637056
 H   -1.373726106338   -0.495129433982   -3.753680637056
