8
0 1 
 C    0.560763089405   -0.514318897005   -0.066822816571
 C   -0.562236910595    0.516681102995    0.064177183429
 H    1.444763089405   -0.076318897005   -0.522822816571
 H    0.833763089405   -0.882318897005    0.922177183429
 H    0.225763089405   -1.352318897005   -0.679822816571
 H   -0.228236910595    1.310681102995    0.731177183429
 H   -0.810146910595    0.938414102995   -0.921054816571
 H   -1.448356910595    0.033735102995    0.501847183429
