11
0 1 
 C    0.160570107352    0.376278334334   -0.398704760102
 C   -0.745429892648   -0.826721665666   -0.688704760102
 C    0.594570107352    0.468278334334    1.059295239898
 H    1.042570107352    0.322278334334   -1.036704760102
 H   -0.351429892648    1.307278334334   -0.637704760102
 H   -1.441429892648   -0.940721665666    0.143295239898
 H    1.208570107352   -0.387721665666    1.337295239898
 H    1.176570107352    1.379278334334    1.203295239898
 H   -0.281429892648    0.514278334334    1.704295239898
 H   -1.327899892648   -0.664883665666   -1.607684760102
 H   -0.141139892648   -1.742144665666   -0.771334760102
