23
0 1 
 C    0.318410777382    1.888945865536   -2.135586457773
 C   -0.947589222618    0.207945865536    1.024413542227
 C    0.053410777382    0.529945865536    1.931413542227
 C   -0.860589222618    0.646945865536   -0.292586457773
 C    0.224410777382    1.407945865536   -0.712586457773
 C    1.139410777382    1.290945865536    1.521413542227
 C    1.223410777382    1.728945865536    0.204413542227
 H   -1.798589222618   -0.376054134464    1.346413542227
 H   -0.011589222618    0.188945865536    2.956413542227
 H   -1.647589222618    0.392945865536   -0.987586457773
 H    1.922410777382    1.534945865536    2.222413542227
 H    0.571410777382    2.949945865536   -2.104586457773
 H   -0.651589222618    1.799945865536   -2.627586457773
 H    2.069410777382    2.326945865536   -0.104586457773
 H    1.085001777382    1.365915865536   -2.726156457773
 C   -1.239589222618   -3.196054134464   -0.523586457773
 C    0.211410777382   -3.648054134464   -0.573586457773
 H   -1.898589222618   -3.989054134464   -0.172586457773
 H   -1.328589222618   -2.362054134464    0.167413542227
 H   -1.533589222618   -2.866054134464   -1.516586457773
 H    0.547410777382   -3.973054134464    0.398413542227
 H    0.805410777382   -2.770054134464   -0.816586457773
 H    0.408136777382   -4.433524134464   -1.318126457773
