11
0 1 
 C   -0.231809594306   -0.455164861496   -0.247511488192
 C   -0.227809594306   -0.233164861496    1.266488511808
 C    0.452190405694    0.653835138504   -1.037511488192
 H    0.276190405694   -1.394164861496   -0.455511488192
 H   -1.265809594306   -0.525164861496   -0.587511488192
 H   -0.625809594306    0.759835138504    1.479488511808
 H   -0.120809594306    1.567835138504   -0.860511488192
 H    1.447190405694    0.867835138504   -0.664511488192
 H    0.788460405694   -0.336144861496    1.674649511808
 H   -0.877529594306   -0.976014861496    1.752333511808
 H    0.466570405694    0.446705138504   -2.117738888192
