16
0 1 
 C    0.507068744130    1.712957790675   -0.779659453781
 C    0.079068744130    2.742957790675    0.270340546219
 H    1.394068744130    1.171957790675   -0.444659453781
 H   -0.295931255870    1.000957790675   -0.965659453781
 H    0.713068744130    2.182957790675   -1.741659453781
 H   -0.781931255870    3.291957790675   -0.117659453781
 H    0.890798744130    3.457847790675    0.470420546219
 H   -0.217941255870    2.227857790675    1.195790546219
 C   -0.384931255870   -2.009042209325   -0.468659453781
 C   -0.194931255870   -2.446042209325    0.984340546219
 H   -0.513931255870   -2.884042209325   -1.107659453781
 H   -1.271931255870   -1.384042209325   -0.564659453781
 H    0.481068744130   -1.440042209325   -0.808659453781
 H    0.150068744130   -1.591042209325    1.565340546219
 H    0.539178744130   -3.262192209325    1.054970546219
 H   -1.161301255870   -2.782072209325    1.388340546219
