9
0 1 
 C   -1.174444587546    0.631694395739    0.584125847520
 C    0.069555412454   -0.033305604261    0.023125847520
 O    0.953555412454   -0.455305604261    0.767125847520
 N    0.153555412454   -0.133305604261   -1.294874152480
 H    0.959555412454   -0.585305604261   -1.692874152480
 H   -0.584444587546    0.215694395739   -1.907874152480
 H   -1.656444587546   -0.072305604261    1.262125847520
 H   -1.884444587546    0.842694395739   -0.215874152480
 H   -0.945664587546    1.552534695739    1.140645847520
