8
0 1 
 C   -0.689886645442   -0.296741058271   -0.010484576576
 C    0.693113354558    0.297258941729    0.009515423424
 H   -0.893886645442   -0.757741058271   -0.968484576576
 H   -0.768886645442   -1.055741058271    0.765515423424
 H   -1.435886645442    0.472258941729    0.191515423424
 H    0.843113354558    0.787258941729    0.969515423424
 H    0.752933354558    1.022348941729   -0.815510576576
 H    1.464193354558   -0.474551058271   -0.131011576576
