16
0 1 
 C    1.719469927015    0.606391210451   -0.887521171986
 C    1.810469927015    0.899391210451    0.612478828014
 H    2.603469927015    0.986391210451   -1.402521171986
 H    1.664469927015   -0.471608789549   -1.036521171986
 H    0.820469927015    1.048391210451   -1.321521171986
 H    0.895469927015    0.565391210451    1.097478828014
 H    1.957749927015    1.977311210451    0.774925828014
 H    2.659869927015    0.375961210451    1.075656828014
 C   -1.553530072985   -1.362608789549   -0.276521171986
 C   -1.977530072985   -0.142608789549    0.552478828014
 H   -1.900530072985   -2.263608789549    0.211478828014
 H   -1.959530072985   -1.294608789549   -1.285521171986
 H   -0.465530072985   -1.409608789549   -0.326521171986
 H   -3.012530072985    0.104391210451    0.309478828014
 H   -1.352530072985    0.700391210451    0.258478828014
 H   -1.897510072985   -0.325518789549    1.634209428014
