8
0 1 
 C    0.408435264568    0.364234685352    0.543361266823
 C   -0.408564735432   -0.364765314648   -0.538638733177
 H    1.400435264568    0.591234685352    0.150361266823
 H   -0.069564735432    1.302234685352    0.811361266823
 H    0.528435264568   -0.264765314648    1.427361266823
 H   -0.634564735432    0.331234685352   -1.338638733177
 H    0.130415264568   -1.212555314648   -0.986702733177
 H   -1.353614735432   -0.741065314648   -0.119972733177
