10
-1 1 
 C   -0.763040539876    0.348795425934    0.685947337067
 C   -1.353040539876    1.419795425934   -0.227052662933
 C    0.395959460124   -0.392204574066    0.032947337067
 O    0.424959460124   -0.486204574066   -1.213052662933
 O    1.273959460124   -0.891204574066    0.766947337067
 H   -0.402040539876    0.835795425934    1.594947337067
 H   -1.534040539876   -0.365204574066    0.973947337067
 H   -0.554040539876    2.097795425934   -0.507052662933
 H   -2.176460539876    1.954115425934    0.269417337067
 H   -1.815300539876    0.949585425934   -1.107522662933
