23
0 1 
 C    3.480536119770    1.080026128489    0.712039476214
 C   -0.100463880230   -0.134973871511    0.339039476214
 C   -0.458463880230    0.404026128489   -0.897960523786
 C    1.174536119770    0.093026128489    0.859039476214
 C    2.105536119770    0.855026128489    0.153039476214
 C    0.466536119770    1.173026128489   -1.610960523786
 C    1.745536119770    1.397026128489   -1.082960523786
 H   -0.778463880230   -0.735973871511    0.916039476214
 H   -1.442463880230    0.222026128489   -1.307960523786
 H    1.429536119770   -0.306973871511    1.827039476214
 H    0.193536119770    1.596026128489   -2.567960523786
 H    3.457536119770    0.969026128489    1.798039476214
 H    3.764536119770    2.107026128489    0.489039476214
 H    2.457536119770    1.992026128489   -1.634960523786
 H    4.251316119770    0.420694128489    0.286385556214
 C   -3.597463880230   -1.634973871511    0.105039476214
 C   -4.011463880230   -2.672973871511    1.132039476214
 H   -2.696463880230   -1.127973871511    0.411039476214
 H   -3.446463880230   -2.107973871511   -0.865960523786
 H   -4.392463880230   -0.893973871511    0.012039476214
 H   -4.984463880230   -3.045973871511    0.839039476214
 H   -4.085603880230   -2.225980871511    2.134386476214
 H   -3.310523880230   -3.520717871511    1.136357376214
