16
0 1 
 C   -0.049238497611    0.448236035171    2.075656868667
 C   -0.569238497611   -0.904763964829    2.571656868667
 H    0.841761502389    0.299236035171    1.461656868667
 H   -0.818238497611    0.944236035171    1.482656868667
 H    0.206761502389    1.076236035171    2.929656868667
 H   -1.453238497611   -0.748763964829    3.186656868667
 H    0.231301502389   -1.371923964829    3.164016868667
 H   -0.904138497611   -1.524443964829    1.726766868667
 C    0.638761502389    0.505236035171   -1.687343131333
 C   -0.015238497611   -0.052763964829   -2.961343131333
 H    1.147761502389    1.443236035171   -1.918343131333
 H   -0.127238497611    0.692236035171   -0.933343131333
 H    1.360761502389   -0.211763964829   -1.297343131333
 H   -0.729238497611    0.689236035171   -3.314343131333
 H    0.730111502389   -0.252333964829   -3.745323131333
 H   -0.546448497611   -0.986893964829   -2.726373131333
