16
0 1 
 C   -2.201197366538    1.264441538887   -1.483284789239
 C   -0.576197366538    1.189441538887    0.450715210761
 C   -1.074197366538    0.610441538887   -0.719284789239
 C    0.473802633462    0.590441538887    1.153715210761
 C    1.034802633462   -0.598558461113    0.682715210761
 C   -0.506197366538   -0.581558461113   -1.176284789239
 C    0.544802633462   -1.185558461113   -0.483284789239
 O    2.063802633462   -1.188558461113    1.358715210761
 H   -1.009197366538    2.110441538887    0.818715210761
 H    0.846802633462    1.044441538887    2.060715210761
 H   -2.895197366538    1.704441538887   -0.767284789239
 H   -2.745197366538    0.478441538887   -1.984284789239
 H   -0.889197366538   -1.050558461113   -2.073284789239
 H    2.272802633462   -0.709558461113    2.167715210761
 H    0.980802633462   -2.106558461113   -0.843284789239
 H   -1.877787366538    2.043211538887   -2.189624789239
