18
0 1 
 C   -1.212016389545   -1.071330027742    1.228235829690
 C   -0.499016389545   -1.502330027742    2.510235829690
 C   -0.404016389545   -0.268330027742    0.249235829690
 C    0.900983610455    0.151669972258    0.510235829690
 C   -0.974016389545    0.059669972258   -0.972764170310
 C    1.603983610455    0.900669972258   -0.435764170310
 C   -0.273016389545    0.804669972258   -1.913764170310
 C    1.019983610455    1.220669972258   -1.639764170310
 H   -1.597016389545   -1.946330027742    0.716235829690
 H   -2.066016389545   -0.454330027742    1.511235829690
 H   -0.074016389545   -0.639330027742    3.023235829690
 H    1.369983610455   -0.023330027742    1.449235829690
 H   -1.978016389545   -0.269330027742   -1.200764170310
 H    2.609983610455    1.235669972258   -0.222764170310
 H   -0.727016389545    1.019669972258   -2.865764170310
 H    1.566983610455    1.805669972258   -2.365764170310
 H    0.243727610455   -2.297156027742    2.347195829690
 H   -1.287848389545   -1.948002027742    3.134035829690
