7
-1 1 
 C   -1.062054880809    0.577100688081    0.785953029090
 C    0.054945119191   -0.034899311919   -0.048046970910
 O    0.922945119191    0.726100688081   -0.526046970910
 O    0.082945119191   -1.272899311919   -0.217046970910
 H   -1.475054880809    1.445100688081    0.270953029090
 H   -0.632054880809    0.918100688081    1.729953029090
 H   -1.865614880809   -0.141009311919    1.006413029090
