8
0 1 
 C   -0.706172845996    0.243134076631    0.186274035483
 C    0.704827154004   -0.246865923369   -0.185725964517
 H   -0.935172845996   -0.019865923369    1.220274035483
 H   -0.755172845996    1.328134076631    0.091274035483
 H   -1.447172845996   -0.207865923369   -0.474725964517
 H    1.407827154004    0.200134076631    0.515274035483
 H    0.800287154004   -1.342211923369   -0.152485964517
 H    0.945427154004    0.086110076631   -1.206135964517
