19
0 1 
 C    0.539570070788   -0.877111929570   -2.761857676628
 C    0.015570070788   -0.352111929570    0.897142323372
 C    0.002570070788    0.149888070430   -0.439857676628
 C    0.418570070788   -0.908111929570   -1.288857676628
 C    0.677570070788   -1.974111929570   -0.490857676628
 C   -0.335429929212    0.426888070430    1.992142323372
 C   -0.720429929212    1.748888070430    1.749142323372
 C   -0.384429929212    1.473888070430   -0.663857676628
 C   -0.753429929212    2.267888070430    0.431142323372
 N    0.430570070788   -1.652111929570    0.817142323372
 H    0.589570070788   -2.279111929570    1.599142323372
 H   -0.304429929212    0.026888070430    2.996142323372
 H    1.013570070788   -2.944111929570   -0.845857676628
 H   -1.002429929212    2.384888070430    2.579142323372
 H   -0.416429929212    1.853888070430   -1.665857676628
 H   -0.246429929212   -0.236111929570   -3.158857676628
 H    0.354570070788   -1.884111929570   -3.136857676628
 H   -1.062429929212    3.293888070430    0.273142323372
 H    1.520080070788   -0.550751929570   -3.138811676628
