19
0 1 
 C   -2.350684324000   -0.838584045571   -0.406765354511
 C   -1.786684324000   -1.392584045571   -1.729765354511
 H   -3.408684324000   -1.084584045571   -0.315765354511
 H   -1.814684324000   -1.270584045571    0.438234645489
 H   -2.232684324000    0.245415954429   -0.382765354511
 H   -0.706684324000   -1.234584045571   -1.752765354511
 H   -2.272514324000   -0.919484045571   -2.595873354511
 H   -1.985284324000   -2.471824045571   -1.805870554511
 C    0.971315676000    0.712415954429    0.345234645489
 C    2.208315676000   -0.224584045571    0.329234645489
 C    1.023315676000    1.785415954429    1.482234645489
 H    0.886315676000    1.221415954429   -0.615765354511
 H    0.079315676000    0.105415954429    0.472234645489
 H    2.219315676000   -0.836584045571   -0.574765354511
 H    1.711315676000    1.474415954429    2.266234645489
 H    1.414315676000    2.714415954429    1.062234645489
 H    2.184315676000   -0.845644045571    1.236819645489
 H    3.095975676000    0.423615954429    0.372641645489
 H    0.048835676000    1.977555954429    1.954971645489
