8
0 1 
 C   -0.603808673476   -0.350463237389   -0.343007501843
 C    0.599191326524    0.356536762611    0.344992498157
 H   -1.380808673476    0.375536762611   -0.584007501843
 H   -0.269808673476   -0.829463237389   -1.261007501843
 H   -1.015808673476   -1.107463237389    0.325992498157
 H    1.346191326524   -0.409463237389    0.563992498157
 H    0.316851326524    0.835912762611    1.293932498157
 H    1.058361326524    1.062623762611   -0.362537501843
