8
0 1 
 C    0.593325978147   -0.376956166777    0.299424637603
 C   -0.599674021853    0.376043833223   -0.298575362397
 H    1.514325978147   -0.065956166777   -0.187575362397
 H    0.739325978147   -0.175956166777    1.356424637603
 H    0.463325978147   -1.450956166777    0.167424637603
 H   -0.385674021853    1.446043833223   -0.270575362397
 H   -1.516513821853    0.172933833223    0.274274637603
 H   -0.739205021853    0.084753833223   -1.350085362397
