8
0 1 
 C    0.611223918475   -0.269120414613   -0.379991737256
 C   -0.611776081525    0.268879585387    0.382008262744
 H    0.870223918475    0.412879585387   -1.191991737256
 H    1.462223918475   -0.347120414613    0.294008262744
 H    0.393223918475   -1.256120414613   -0.791991737256
 H   -0.413776081525    1.282879585387    0.719008262744
 H   -1.470155081525    0.275359585387   -0.305841737256
 H   -0.835166081525   -0.365010414613    1.252798262744
