18
0 1 
 C    2.421700350282    1.628484951171    0.004800048178
 C    0.998700350282    2.015484951171   -0.385199951822
 O    0.148700350282    1.164484951171   -0.631199951822
 N    0.725700350282    3.305484951171   -0.474199951822
 H    2.445700350282    1.527484951171    1.087800048178
 H    3.115700350282    2.415484951171   -0.255199951822
 H   -0.192299649718    3.594484951171   -0.763199951822
 H    1.398700350282    4.010484951171   -0.230199951822
 H    2.765880350282    0.687917951171   -0.450029951822
 C   -1.326299649718   -1.156515048829    1.474800048178
 C   -1.059299649718   -2.132515048829    0.359800048178
 O   -1.506299649718   -3.272515048829    0.413800048178
 N   -0.405299649718   -1.673515048829   -0.692199951822
 H   -0.338299649718   -2.268515048829   -1.513199951822
 H   -0.169299649718   -0.686515048829   -0.747199951822
 H   -1.949299649718   -1.640515048829    2.226800048178
 H   -1.897299649718   -0.325515048829    1.056800048178
 H   -0.406359649718   -0.760199048829    1.929380048178
