26
0 1 
 C   -0.278379967980   -0.054701453642    0.197682957786
 C   -0.917379967980   -1.244701453642    0.908682957786
 C    1.197620032020   -1.953701453642    0.107682957786
 C    1.979620032020    1.794298546358   -0.264317042214
 C    2.188620032020    0.281298546358   -0.185317042214
 O    3.314620032020   -0.220701453642   -0.322317042214
 N    1.110620032020   -0.489701453642    0.010682957786
 H   -0.760379967980    0.097298546358   -0.768317042214
 H   -0.355379967980    0.833298546358    0.807682957786
 H   -2.000379967980   -1.255701453642    0.795682957786
 H   -0.629379967980   -1.264701453642    1.960682957786
 H    1.688620032020   -2.220701453642    1.044682957786
 H    1.363620032020    2.132298546358    0.569682957786
 H   -0.445549967980   -2.072365453642    0.358815957786
 H    0.146310032020   -2.276460453642    0.131510957786
 H    1.727460032020   -2.398531453642   -0.747534042214
 H    2.972910032020    2.264240546358   -0.213966042214
 H    1.491770032020    2.075946546358   -1.209131042214
 C   -3.697379967980    1.320298546358   -0.755317042214
 C   -4.549379967980    0.587298546358    0.291682957786
 H   -4.237379967980    2.184298546358   -1.146317042214
 H   -2.768379967980    1.662298546358   -0.297317042214
 H   -3.457379967980    0.643298546358   -1.577317042214
 H   -3.959379967980   -0.231701453642    0.697682957786
 H   -5.472569967980    0.169734546358   -0.136533042214
 H   -4.801209967980    1.271171546358    1.115635957786
