7
-1 1 
 C    0.955507054235    1.055679744701   -0.276407717356
 C   -0.035492945765   -0.061320255299    0.063592282644
 O   -1.083492945765    0.169679744701    0.705592282644
 O    0.166507054235   -1.169320255299   -0.464407717356
 H    0.378507054235    1.849679744701   -0.747407717356
 H    1.626507054235    0.709679744701   -1.066407717356
 H    1.593767054235    1.465992744701    0.519998282644
