15
0 1 
 C   -1.702153176215   -1.753281168664   -0.193805805036
 C    1.286846823785    1.331718831336    0.142194194964
 C    0.860846823785    0.908718831336   -1.114805805036
 C    0.748846823785    0.754718831336    1.296194194964
 C   -0.100153176215   -0.102281168664   -1.216805805036
 C   -0.224153176215   -0.242281168664    1.185194194964
 C   -0.651153176215   -0.678281168664   -0.071805805036
 H    2.056846823785    2.081718831336    0.223194194964
 H    1.281846823785    1.349718831336   -2.007805805036
 H    1.079846823785    1.087718831336    2.271194194964
 H   -0.424153176215   -0.441281168664   -2.186805805036
 H   -0.649153176215   -0.674281168664    2.082194194964
 H   -2.247153176215   -1.596281168664   -1.126805805036
 H   -2.415153176215   -1.642281168664    0.621194194964
 H   -1.289663176215   -2.773006168664   -0.190215805036
