8
0 1 
 C   -0.095726651653   -0.737510062502   -0.193866078649
 C    0.099273348347    0.737489937498    0.198133921351
 H    0.300273348347   -1.387510062502    0.587133921351
 H   -1.158726651653   -0.943510062502   -0.327866078649
 H    0.416273348347   -0.945510062502   -1.133866078649
 H   -0.340726651653    1.351489937498   -0.586866078649
 H    1.170863348347    0.974589937498    0.272183921351
 H   -0.430186651653    0.950689937498    1.138463921351
