8
0 1 
 C    0.284487785084   -0.004157859550    0.684491508210
 C   -0.285512214916   -0.004157859550   -0.685508491790
 H    0.071487785084    0.968842140450    1.122491508210
 H   -0.165512214916   -0.773157859550    1.312491508210
 H    1.363487785084   -0.135157859550    0.644491508210
 H    0.235487785084    0.754842140450   -1.266508491790
 H   -0.142861214916   -0.986224859550   -1.160058491790
 H   -1.349892214916    0.269870140450   -0.640798491790
