12
0 1 
 C    0.602660189864   -1.006675435524    1.892556719439
 C   -0.285339810136    1.259324564476   -0.832443280561
 C    0.179660189864   -0.357675435524    0.594556719439
 C   -0.157339810136   -0.923675435524   -0.599443280561
 N    0.089660189864    1.011324564476    0.416556719439
 N   -0.440339810136    0.099324564476   -1.467443280561
 H   -0.423339810136    2.269324564476   -1.201443280561
 H   -0.717339810136   -0.015675435524   -2.430443280561
 H   -0.217339810136   -1.953675435524   -0.897443280561
 H    1.546660189864   -0.544675435524    2.183556719439
 H    0.768660189864   -2.058675435524    1.678556719439
 H   -0.128879810136   -0.879795435524    2.704196719439
