8
0 1 
 C    0.130158897470    0.641765806280    0.391761412321
 C   -0.133841102530   -0.643234193720   -0.393238587679
 H   -0.633841102530    0.807765806280    1.147761412321
 H    1.098158897470    0.571765806280    0.886761412321
 H    0.145158897470    1.495765806280   -0.287238587679
 H   -0.157841102530   -1.482234193720    0.302761412321
 H   -1.094651102530   -0.573383193720   -0.924248587679
 H    0.686858897470   -0.802196193720   -1.108208587679
