12
0 1 
 C    0.322606122380    0.061488301368   -0.148160822744
 C    0.214606122380    1.044488301368    1.017839177256
 C    0.260606122380   -1.389511698632    0.340839177256
 O   -0.731393877620    0.300488301368   -1.083160822744
 H    1.281606122380    0.201488301368   -0.630160822744
 H   -0.690393877620    0.816488301368    1.573839177256
 H   -0.604393877620   -1.535511698632    0.988839177256
 H    0.185606122380   -2.062511698632   -0.513160822744
 H    1.169606122380   -1.637511698632    0.886839177256
 H   -0.523393877620   -0.200511698632   -1.881160822744
 H    0.207794122380    2.086648301368    0.665909177256
 H    1.081834122380    0.938458301368    1.686179177256
