8
0 1 
 C    0.165075926859   -0.327827221555    0.667096812766
 C   -0.166924073141    0.326172778445   -0.664903187234
 H   -0.604924073141   -1.052827221555    0.937096812766
 H    1.128075926859   -0.835827221555    0.596096812766
 H    0.228075926859    0.433172778445    1.446096812766
 H    0.622075926859    1.030172778445   -0.916903187234
 H   -1.126784073141    0.861015178445   -0.613753187234
 H   -0.224514073141   -0.416007121555   -1.474753187234
