7
-1 1 
 C    0.600571196929    0.855290224431   -0.972888916353
 C   -0.055428803071   -0.045709775569    0.059111083647
 O   -0.215428803071    0.396290224431    1.222111083647
 O   -0.336428803071   -1.206709775569   -0.302888916353
 H    0.119571196929    0.705290224431   -1.936888916353
 H    1.657571196929    0.597290224431   -1.052888916353
 H    0.490321196929    1.919830224431   -0.718748916353
