19
0 1 
 C    0.593097874366    1.020612972699    0.875201254155
 C   -0.656902125634    0.394612972699    1.567201254155
 C    0.637097874366    2.351612972699    1.515201254155
 H    0.451097874366    1.128612972699   -0.198798745845
 H    1.506097874366    0.471612972699    1.079201254155
 H   -1.108902125634   -0.397387027301    0.966201254155
 H   -0.422902125634   -0.003387027301    2.561201254155
 H    1.322097874366    3.070612972699    1.070201254155
 H    0.859097874366    2.222612972699    2.574201254155
 H   -1.334962125634    1.256982972699    1.648121254155
 H   -0.410642125634    2.658372972699    1.380541254155
 C    0.316097874366   -1.378387027301   -1.807798745845
 C   -0.829902125634   -2.330387027301   -2.101798745845
 H   -0.066902125634   -0.363387027301   -1.730798745845
 H    0.787097874366   -1.654387027301   -0.864798745845
 H    1.051097874366   -1.427387027301   -2.609798745845
 H   -1.536902125634   -2.203387027301   -1.286798745845
 H   -1.326432125634   -2.078547027301   -3.050498745845
 H   -0.477272125634   -3.372307027301   -2.109778745845
