8
0 1 
 C    0.642760406071   -0.058836071279    0.420654828371
 C   -0.644239593929    0.055163928721   -0.420345171629
 H    1.364760406071   -0.713836071279   -0.069345171629
 H    1.077760406071    0.931163928721    0.537654828371
 H    0.430760406071   -0.430836071279    1.422654828371
 H   -1.353239593929    0.694163928721    0.106654828371
 H   -1.086009593929   -0.935966071279   -0.600616171629
 H   -0.416419593929    0.499033928721   -1.400690171629
