8
0 1 
 C   -0.012820077646   -0.431539169994   -0.637076671458
 C    0.008179922354    0.438460830006    0.631923328542
 H    0.572179922354    0.035460830006   -1.428076671458
 H    0.426179922354   -1.404539169994   -0.422076671458
 H   -1.039820077646   -0.573539169994   -0.973076671458
 H    1.046179922354    0.672460830006    0.870923328542
 H   -0.378820077646   -0.184539169994    1.435923328542
 H   -0.570650077646    1.372280830006    0.577743328542
