8
0 1 
 C   -0.570813082803    0.015755481191    0.498975755115
 C    0.575186917197   -0.016244518809   -0.498024244885
 H   -0.217813082803    0.267755481191    1.499975755115
 H   -1.302813082803    0.762755481191    0.191975755115
 H   -1.058813082803   -0.958244518809    0.525975755115
 H    0.154186917197   -0.167244518809   -1.491024244885
 H    1.260366917197   -0.842474518809   -0.257458244885
 H    1.112806917197    0.943275481191   -0.480774244885
