18
0 1 
 C    2.031569067863    0.405153318933    0.047246791917
 C    2.363569067863    1.453153318933    1.118246791917
 C    0.567569067863    0.026153318933   -0.078753208083
 C   -0.233430932137   -0.230846681067    1.050246791917
 C   -0.011430932137   -0.128846681067   -1.362753208083
 C   -1.633430932137   -0.570846681067    0.910246791917
 C   -1.374430932137   -0.504846681067   -1.507753208083
 C   -2.201430932137   -0.692846681067   -0.355753208083
 H    2.376569067863    0.752153318933   -0.925753208083
 H    2.597569067863   -0.471846681067    0.291246791917
 H    2.188569067863    1.020153318933    2.105246791917
 H    0.188569067863   -0.150846681067    2.042246791917
 H    0.588569067863    0.029153318933   -2.249753208083
 H   -2.240430932137   -0.741846681067    1.790246791917
 H   -1.798430932137   -0.620846681067   -2.497753208083
 H   -3.245430932137   -0.955846681067   -0.466753208083
 H    1.758719067863    2.365253818933    1.007666791917
 H    3.437309067863    1.677088318933    1.034986791917
