16
0 1 
 C    1.937589366514   -1.335742271049   -0.045647027058
 C    2.129589366514   -0.511742271049    1.232352972942
 H    1.195589366514   -0.858742271049   -0.685647027058
 H    1.590589366514   -2.337742271049    0.204352972942
 H    2.880589366514   -1.407742271049   -0.590647027058
 H    1.164589366514   -0.457742271049    1.733352972942
 H    2.848939366514   -1.016585271049    1.893922972942
 H    2.439399366514    0.512085728951    0.975852972942
 C   -1.338410633486    0.672257728951   -0.370647027058
 C   -2.724410633486    1.180257728951   -0.815647027058
 H   -1.170410633486    0.892257728951    0.684352972942
 H   -0.555410633486    1.138257728951   -0.970647027058
 H   -1.292410633486   -0.409742271049   -0.498647027058
 H   -3.466410633486    0.738257728951   -0.155647027058
 H   -2.773757633486    2.276627728951   -0.741267027058
 H   -2.913179633486    0.870907728951   -1.854237027058
