13
1 1 
 C    1.728240150919   -0.809363453576    0.568385909327
 C   -0.420759849081    0.204636546424   -0.135614090673
 N   -1.438759849081    0.984636546424    0.158385909327
 N    0.554240150919    0.048636546424    0.748385909327
 N   -0.387759849081   -0.414363453576   -1.302614090673
 H   -1.456759849081    1.462636546424    1.048385909327
 H   -2.201759849081    1.099636546424   -0.490614090673
 H    0.437240150919    0.512636546424    1.642385909327
 H    0.384240150919   -1.015363453576   -1.531614090673
 H   -1.139759849081   -0.295363453576   -1.963614090673
 H    1.469240150919   -1.688363453576   -0.026614090673
 H    2.027240150919   -1.179363453576    1.551385909327
 H    2.589872650919   -0.295423453576    0.117329909327
