8
0 1 
 C    0.440520937181    0.175404859507   -0.592755251209
 C   -0.437479062819   -0.172595140493    0.598244748791
 H    1.307520937181    0.759404859507   -0.280755251209
 H    0.778520937181   -0.739595140493   -1.077755251209
 H   -0.118479062819    0.745404859507   -1.330755251209
 H   -1.343479062819   -0.642595140493    0.215244748791
 H   -0.721580062819    0.737820859507    1.146359448791
 H    0.061277237181   -0.893895140493    1.262299048791
