17
0 1 
 C   -0.141962312022    1.592985635565   -1.648250495095
 C    0.601037687978    2.929985635565   -1.551250495095
 H    0.544037687978    0.766985635565   -1.453250495095
 H   -0.968962312022    1.567985635565   -0.937250495095
 H   -0.536962312022    1.479985635565   -2.651250495095
 H   -0.101962312022    3.729985635565   -1.672250495095
 H    1.360757687978    2.995426435565   -2.344060495095
 H    1.089627687978    3.000922135565   -0.568270495095
 C    0.458037687978   -0.018014364435    1.631749504905
 C   -1.497962312022   -1.509014364435    0.353749504905
 S    0.304037687978   -1.433014364435    0.554749504905
 H   -0.182962312022   -0.149014364435    2.496749504905
 H    1.494037687978    0.093985635565    1.950749504905
 H    0.139037687978    0.874985635565    1.102749504905
 H   -1.873962312022   -0.543014364435    0.013749504905
 H   -1.952962312022   -1.751014364435    1.312749504905
 H   -1.738892312022   -2.278688364435   -0.394280495095
