8
0 1 
 C   -0.493614941573    0.532573898056    0.234516015682
 C    0.494385058427   -0.531426101944   -0.237483984318
 H   -1.380614941573    0.533573898056   -0.401483984318
 H   -0.802614941573    0.318573898056    1.254516015682
 H   -0.027614941573    1.516573898056    0.217516015682
 H    1.436385058427   -0.403426101944    0.292516015682
 H    0.657565058427   -0.444106101944   -1.321801984318
 H    0.107725058427   -1.534856101944   -0.005922984318
