31
0 1 
 C   -2.600839027349   -1.395563074842    4.587287496188
 C   -0.599839027349    0.622436925158    1.351287496188
 C   -1.561839027349    1.306436925158    2.102287496188
 C   -0.287839027349   -0.707563074842    1.643287496188
 C   -2.206839027349    0.631436925158    3.153287496188
 C   -0.914839027349   -1.366563074842    2.689287496188
 C   -1.896839027349   -0.703563074842    3.443287496188
 H   -0.083839027349    1.110436925158    0.539287496188
 H   -1.810839027349    2.335436925158    1.882287496188
 H    0.466160972651   -1.222563074842    1.068287496188
 H   -2.956839027349    1.146436925158    3.735287496188
 H   -0.657839027349   -2.394563074842    2.907287496188
 H   -2.528839027349   -0.780563074842    5.486287496188
 H   -2.084839027349   -2.331563074842    4.793287496188
 H   -3.664263027349   -1.592679074842    4.386597496188
 C    0.634160972651    2.711436925158   -3.796712503812
 C    0.223160972651   -0.669563074842   -2.039712503812
 C   -0.070839027349    0.533436925158   -2.674712503812
 C    1.541160972651   -0.961563074842   -1.687712503812
 C    0.961160972651    1.444436925158   -3.016712503812
 C    2.601160972651   -0.056563074842   -1.982712503812
 C    2.300160972651    1.151436925158   -2.630712503812
 O    1.768160972651   -2.137563074842   -1.026712503812
 H   -0.572839027349   -1.359563074842   -1.797712503812
 H   -1.093839027349    0.756436925158   -2.948712503812
 H    0.961160972651   -2.644563074842   -0.895712503812
 H    3.613160972651   -0.292563074842   -1.690712503812
 H    1.222160972651    3.543436925158   -3.405712503812
 H   -0.413839027349    2.947436925158   -3.612712503812
 H    3.092160972651    1.849436925158   -2.862712503812
 H    0.820922972651    2.609501925158   -4.875938503812
