9
0 1 
 C    1.422442024966   -0.270806987221   -0.186816949087
 C   -0.071557975034   -0.032806987221   -0.011816949087
 O   -0.911557975034   -0.874806987221   -0.366816949087
 N   -0.422557975034    1.109193012779    0.532183050913
 H    1.640442024966   -1.264806987221    0.202183050913
 H    1.994442024966    0.451193012779    0.396183050913
 H   -1.396557975034    1.289193012779    0.740183050913
 H    0.296442024966    1.820193012779    0.698183050913
 H    1.718742024966   -0.208386987221   -1.244318949087
