16
0 1 
 C   -1.546693551767    0.871885508366    0.602699203539
 C   -1.779693551767   -0.020114491634    1.789699203539
 H   -1.098693551767    0.308885508366   -0.214300796461
 H   -2.498693551767    1.286885508366    0.269699203539
 H   -0.896693551767    1.702885508366    0.877699203539
 H   -2.274693551767    0.548885508366    2.572699203539
 H   -0.800323551767   -0.392524491634    2.124576203539
 H   -2.417103551767   -0.872384491634    1.511596203539
 C    1.936306448233    0.107885508366   -0.737300796461
 C    1.395306448233   -0.959114491634   -1.660300796461
 H    1.287306448233    0.981885508366   -0.732300796461
 H    1.996306448233   -0.285114491634    0.277699203539
 H    2.936306448233    0.400885508366   -1.062300796461
 H    0.403306448233   -1.180114491634   -1.286300796461
 H    1.324656448233   -0.617394491634   -2.703485796461
 H    1.976096448233   -1.889234491634   -1.573326796461
