20
0 1 
 C    0.030945872998   -2.526610219237    1.407245185719
 C    1.296945872998    0.819389780763    0.747245185719
 C    0.637945872998   -1.280610219237    0.830245185719
 C    1.129945872998   -1.046610219237   -0.413754814281
 N    0.695945872998   -0.086610219237    1.513245185719
 N    1.517945872998    0.281389780763   -0.447754814281
 H    1.476945872998    1.854389780763    1.012245185719
 H    1.903945872998    0.779389780763   -1.243754814281
 H    1.203945872998   -1.770610219237   -1.212754814281
 H    0.610945872998   -2.852610219237    2.259245185719
 H    0.101945872998   -3.315610219237    0.660245185719
 H   -1.017314127002   -2.392346219237    1.712395185719
 C   -1.768054127002    1.856389780763   -1.177754814281
 C   -3.056054127002    1.708389780763   -2.080754814281
 H   -1.906054127002    1.357389780763   -0.220754814281
 H   -0.915054127002    1.409389780763   -1.685754814281
 H   -1.564054127002    2.911389780763   -0.999754814281
 H   -3.175054127002    0.643389780763   -2.289754814281
 H   -3.959545127002    2.052509780763   -1.556074814281
 H   -2.942374127002    2.209169780763   -3.053534814281
