12
0 1 
 C   -0.311826379298   -1.403174766667   -1.689169349127
 C   -0.051826379298   -0.448174766667   -0.557169349127
 C   -0.493826379298    0.709825233333    1.265830650873
 C    1.066173620702    0.255825233333   -0.223169349127
 N   -1.016826379298   -0.124174766667    0.370830650873
 N    0.749173620702    1.020825233333    0.886830650873
 H   -1.008826379298    1.122825233333    2.126830650873
 H    0.483173620702   -1.296174766667   -2.421169349127
 H   -1.249826379298   -1.132174766667   -2.174169349127
 H    1.366173620702    1.617825233333    1.439830650873
 H    2.012173620702    0.227825233333   -0.749169349127
 H   -0.368896379298   -2.452634766667   -1.364559349127
