8
0 1 
 C   -0.215434151946    0.628984889943   -0.380519347800
 C    0.216565848054   -0.626015110057    0.381480652200
 H    0.613565848054    1.329984889943   -0.466519347800
 H   -0.557434151946    0.350984889943   -1.376519347800
 H   -1.038434151946    1.113984889943    0.139480652200
 H   -0.604434151946   -1.335015110057    0.431480652200
 H    0.531045848054   -0.365205110057    1.402790652200
 H    1.042215848054   -1.130095110057   -0.142159347800
