11
0 1 
 C   -0.276480279560   -0.489270772626   -0.074532421189
 C    1.064519720440   -0.147270772626   -0.746532421189
 C   -0.801480279560    0.604729227374    0.809467578811
 H   -1.019480279560   -0.701270772626   -0.842532421189
 H   -0.190480279560   -1.378270772626    0.547467578811
 H    1.626519720440    0.497729227374   -0.073532421189
 H   -0.990480279560    1.509729227374    0.232467578811
 H   -1.728480279560    0.273729227374    1.273467578811
 H   -0.082480279560    0.817729227374    1.601467578811
 H    1.673559720440   -1.046120772626   -0.923002421189
 H    0.871359720440    0.405529227374   -1.677716421189
