11
1 1 
 C    0.593194095062   -0.128022823748   -0.006484901060
 C   -0.478805904938   -1.198022823748   -0.354484901060
 N   -0.068805904938    1.164977176252    0.325515098940
 H    1.218194095062   -0.480022823748    0.819515098940
 H    1.240194095062    0.002977176252   -0.880484901060
 H    0.016194095062   -2.062022823748   -0.798484901060
 H   -1.155805904938   -0.793022823748   -1.109484901060
 H   -0.581805904938    1.106977176252    1.205515098940
 H    0.638194095062    1.892977176252    0.430515098940
 H   -0.710805904938    1.458977176252   -0.405484901060
 H   -1.070345904938   -1.524442823748    0.513579098940
