7
-1 1 
 C   -0.902039566688   -0.328864788778    1.086054745610
 C    0.053960433312    0.018135211222   -0.063945254390
 O    0.244960433312    1.226135211222   -0.328945254390
 O    0.605960433312   -0.913864788778   -0.696945254390
 H   -0.693039566688    0.310135211222    1.945054745610
 H   -0.760039566688   -1.372864788778    1.373054745610
 H   -1.953719566688   -0.193424788778    0.793434745610
