12
0 1 
 C   -0.358042087275    2.131637212903    0.461751124495
 C    0.620957912725   -1.355362787097    0.324751124495
 C   -0.136042087275    0.692637212903    0.105751124495
 C   -0.612042087275   -0.045362787097   -0.934248875505
 N    0.627957912725   -0.151362787097    0.888751124495
 N   -0.107042087275   -1.319362787097   -0.785248875505
 H    1.184957912725   -2.210362787097    0.644751124495
 H   -0.244042087275   -2.113362787097   -1.412248875505
 H   -1.197042087275    0.321637212903   -1.760248875505
 H   -0.689042087275    2.644637212903   -0.440248875505
 H    0.587957912725    2.570637212903    0.771751124495
 H   -1.103760087275    2.271637912903    1.258181124495
