22
0 1 
 C    2.426116822490    1.014099322142   -0.383017843492
 C    2.771116822490    1.939099322142    0.787982156508
 C    0.932116822490    0.790099322142   -0.549017843492
 C    0.033116822490    1.687099322142   -1.036017843492
 C    0.154116822490   -0.325900677858   -0.055017843492
 C   -1.222883177510   -0.010900677858   -0.270017843492
 C    0.475116822490   -1.549900677858    0.570982156508
 C   -2.257883177510   -0.855900677858    0.107982156508
 C   -0.570883177510   -2.396900677858    0.948982156508
 C   -1.920883177510   -2.048900677858    0.719982156508
 N   -1.255883177510    1.219099322142   -0.873017843492
 H    2.772116822490    1.585099322142   -1.240017843492
 H    2.911116822490    0.033099322142   -0.391017843492
 H    2.370116822490    2.932099322142    0.564982156508
 H    0.391116822490    2.620099322142   -1.461017843492
 H   -2.100883177510    1.711099322142   -1.146017843492
 H    1.501116822490   -1.842900677858    0.778982156508
 H   -3.282883177510   -0.563900677858   -0.083017843492
 H   -0.321883177510   -3.335900677858    1.427982156508
 H   -2.709883177510   -2.720900677858    1.021982156508
 H    3.863056822490    1.998799322142    0.906702156508
 H    2.302876822490    1.576999322142    1.715142156508
