8
0 1 
 C    0.211831620793   -0.610908643970   -0.413618880328
 C   -0.212168379207    0.609091356030    0.415381119672
 H   -0.135168379207   -1.511908643970    0.074381119672
 H   -0.194168379207   -0.542908643970   -1.422618880328
 H    1.299831620793   -0.657908643970   -0.463618880328
 H   -1.247168379207    0.856091356030    0.172381119672
 H    0.412831620793    1.452091356030    0.121381119672
 H   -0.132148379207    0.426181356030    1.497111719672
