26
0 1 
 C   -2.403052836122    0.388707343133    0.941601696349
 C   -2.013052836122   -1.063292656867    0.958601696349
 C   -3.768052836122    0.396707343133    0.257601696349
 H   -1.670052836122    1.000707343133    0.416601696349
 H   -2.516052836122    0.744707343133    1.965601696349
 H   -1.630052836122   -1.347292656867   -0.021398303651
 H   -1.270052836122   -1.279292656867    1.724601696349
 H   -4.392052836122    1.183707343133    0.683601696349
 H   -2.962052836122   -1.587762656867    1.143879696349
 H   -4.181342836122   -0.594732656867    0.494734696349
 H   -3.655522836122    0.554687343133   -0.825163303651
 C    1.185947163878    2.391707343133    0.353601696349
 C    0.582947163878    0.515707343133   -1.211398303651
 C    1.254947163878    0.950707343133   -0.071398303651
 C    0.658947163878   -0.817292656867   -1.611398303651
 C    1.410947163878   -1.722292656867   -0.871398303651
 C    2.009947163878    0.037707343133    0.658601696349
 C    2.086947163878   -1.295292656867    0.263601696349
 H   -0.005052836122    1.205707343133   -1.792398303651
 H    0.133947163878   -1.141292656867   -2.497398303651
 H    1.831947163878    2.529707343133    1.222601696349
 H    0.163947163878    2.618707343133    0.658601696349
 H    1.468947163878   -2.758292656867   -1.170398303651
 H    2.531947163878    0.356707343133    1.547601696349
 H    2.675947163878   -1.998292656867    0.836601696349
 H    1.491667163878    3.095227343133   -0.434806303651
