24
0 1 
 C   -0.359536689794    2.947055693429   -0.664951000887
 C   -0.201536689794    2.157055693429   -1.960951000887
 H   -0.137536689794    4.002055693429   -0.833951000887
 H   -1.381536689794    2.850055693429   -0.296951000887
 H    0.323463310206    2.558055693429    0.092048999113
 H   -0.435536689794    1.113055693429   -1.755951000887
 H    0.834630310206    2.217517693429   -2.325234400887
 H   -0.916350689794    2.511216693429   -2.718322000887
 C    2.342463310206    0.369055693429    1.880048999113
 C   -0.119536689794   -0.032944306571    1.556048999113
 C    1.181463310206   -0.172944306571    1.083048999113
 C   -1.195536689794   -0.545944306571    0.844048999113
 C   -0.972536689794   -1.220944306571   -0.350951000887
 C    1.394463310206   -0.862944306571   -0.107951000887
 C    0.323463310206   -1.379944306571   -0.830951000887
 O   -2.029536689794   -1.718944306571   -1.041951000887
 H   -0.298536689794    0.494055693429    2.482048999113
 H   -2.198536689794   -0.425944306571    1.228048999113
 H    2.090463310206    1.367055693429    2.239048999113
 H    3.219463310206    0.461055693429    1.238048999113
 H    2.404463310206   -1.001944306571   -0.470951000887
 H   -2.848536689794   -1.650944306571   -0.549951000887
 H    0.479463310206   -1.904944306571   -1.759951000887
 H    2.579781310206   -0.282305306571    2.734103999113
