10
-1 1 
 C   -0.259231954589   -1.018424000651    0.225516317150
 C    0.975768045411   -1.701424000651   -0.364483682850
 C   -0.247231954589    0.496575999349    0.075516317150
 O    0.771768045411    1.076575999349   -0.362483682850
 O   -1.274231954589    1.112575999349    0.434516317150
 H   -1.159231954589   -1.434424000651   -0.220483682850
 H   -0.294231954589   -1.236424000651    1.294516317150
 H    1.866768045411   -1.146424000651   -0.065483682850
 H    0.927464335411   -1.742935000651   -1.462638682850
 H    1.045774445411   -2.711105000651    0.066380317150
