7
-1 1 
 C   -0.431534213805   -1.330302812009    0.338514165888
 C    0.028465786195    0.075697187991   -0.017485834112
 O    0.978465786195    0.212697187991   -0.815485834112
 O   -0.571534213805    1.046697187991    0.496514165888
 H    0.273465786195   -2.067302812009   -0.051485834112
 H   -1.398534213805   -1.512302812009   -0.133485834112
 H   -0.533964213805   -1.469522812009    1.424854165888
