15
0 1 
 C    2.262817757161    0.689610747469   -0.619327122230
 C   -1.712182242839   -0.527389252531    0.446672877770
 C   -1.509182242839    0.488610747469   -0.467327122230
 C   -0.628182242839   -1.139389252531    1.039672877770
 C   -0.226182242839    0.887610747469   -0.795327122230
 C    0.658817757161   -0.755389252531    0.697672877770
 C    0.869817757161    0.275610747469   -0.210327122230
 H   -2.715182242839   -0.845389252531    0.690672877770
 H   -2.358182242839    0.960610747469   -0.929327122230
 H   -0.787182242839   -1.930389252531    1.758672877770
 H   -0.086182242839    1.681610747469   -1.515327122230
 H    1.499817757161   -1.244389252531    1.161672877770
 H    2.221817757161    1.022610747469   -1.659327122230
 H    2.919817757161   -0.181389252531   -0.591327122230
 H    2.690097757161    1.497900747469   -0.007687122230
