29
0 1 
 C   -0.879990343420   -0.144052329500   -3.058591536732
 C   -1.513990343420   -0.341052329500   -4.454591536732
 C    0.605009656580   -0.520052329500   -3.022591536732
 C   -1.047990343420    1.296947670500   -2.598591536732
 H   -1.395990343420   -0.797052329500   -2.358591536732
 H   -1.247990343420    0.505947670500   -5.077591536732
 H    1.157009656580    0.044947670500   -3.771591536732
 H    1.014009656580   -0.288052329500   -2.038591536732
 H    0.757009656580   -1.584052329500   -3.191591536732
 H   -2.101990343420    1.568947670500   -2.609591536732
 H   -0.661990343420    1.407947670500   -1.585591536732
 H   -0.501990343420    1.966947670500   -3.266591536732
 H   -2.608898343420   -0.422272329500   -4.386911536732
 H   -1.124547343420   -1.250232329500   -4.935961536732
 C   -0.077990343420    1.991947670500    3.330408463268
 C   -0.162990343420   -0.732052329500    0.673408463268
 C    0.826009656580   -1.603052329500    1.126408463268
 C   -0.445990343420    0.432947670500    1.385408463268
 C    0.260009656580    0.743947670500    2.550408463268
 C    1.535009656580   -1.304052329500    2.292408463268
 C    1.245009656580   -0.136052329500    3.005408463268
 H   -0.721990343420   -0.976052329500   -0.216591536732
 H    1.044009656580   -2.510052329500    0.578408463268
 H   -1.220990343420    1.096947670500    1.029408463268
 H    2.302009656580   -1.979052329500    2.644408463268
 H   -0.041990343420    1.751947670500    4.394408463268
 H   -1.103990343420    2.286947670500    3.102408463268
 H    1.789009656580    0.081947670500    3.912408463268
 H    0.595900656580    2.839887670500    3.138382463268
