23
0 1 
 C   -0.186992296875    3.411250770652   -0.528284505297
 C   -0.885992296875   -0.867749229348   -0.758284505297
 C    0.399007703125   -0.343749229348   -0.913284505297
 C   -1.971992296875    0.008250770652   -0.513284505297
 C    0.598007703125    1.048250770652   -0.834284505297
 C   -1.751992296875    1.413250770652   -0.466284505297
 C   -0.452992296875    1.936250770652   -0.584284505297
 H   -1.045992296875   -1.934749229348   -0.811284505297
 H    1.233007703125   -1.008749229348   -1.083284505297
 H   -2.965992296875   -0.393749229348   -0.389284505297
 H    1.601007703125    1.436250770652   -0.947284505297
 H   -2.586992296875    2.077250770652   -0.291284505297
 H    0.855007703125    3.574250770652   -0.259284505297
 H   -0.792992296875    3.831250770652    0.270715494703
 H   -0.395752296875    3.963480770652   -1.456434505297
 C    1.182007703125   -3.036749229348    1.618715494703
 C    2.495007703125   -3.013749229348    2.386715494703
 H    1.372007703125   -3.185749229348    0.554715494703
 H    0.558007703125   -3.857749229348    1.973715494703
 H    0.643007703125   -2.096749229348    1.755715494703
 H    3.033007703125   -3.947749229348    2.227715494703
 H    3.103057703125   -2.158189229348    2.057655494703
 H    2.247117703125   -2.910399229348    3.453425494703
