34
0 1 
 C   -4.408551866571    1.390398315894   -4.953756565493
 C   -2.429551866571    0.124398315894   -1.372756565493
 C   -2.394551866571    1.460398315894   -1.749756565493
 C   -3.105551866571   -0.797601684106   -2.158756565493
 C   -3.036551866571    1.870398315894   -2.911756565493
 C   -3.747551866571   -0.385601684106   -3.317756565493
 C   -3.710551866571    0.947398315894   -3.705756565493
 H   -1.930551866571   -0.199601684106   -0.469756565493
 H   -1.869551866571    2.181398315894   -1.136756565493
 H   -3.120551866571   -1.839601684106   -1.880756565493
 H   -3.005551866571    2.912398315894   -3.198756565493
 H   -4.281551866571   -1.106601684106   -3.916756565493
 H   -4.645551866571    2.453398315894   -4.871756565493
 H   -5.355551866571    0.854398315894   -5.008756565493
 H   -3.846151866571    1.218948315894   -5.883436565493
 C    3.266448133429   -2.916601684106    3.404243434507
 C    2.310448133429   -0.927601684106    2.017243434507
 C    3.025448133429   -1.472601684106    3.133243434507
 C    2.328448133429    0.483398315894    2.150243434507
 C    3.443448133429   -0.412601684106    3.873243434507
 C    1.038448133429   -0.651601684106   -0.000756565493
 C    1.073448133429    0.741398315894    0.155243434507
 C    1.651448133429   -1.492601684106    0.922243434507
 C    1.717448133429    1.324398315894    1.231243434507
 N    3.027448133429    0.762398315894    3.293243434507
 H    0.505448133429   -1.075601684106   -0.841756565493
 H    0.571448133429    1.364398315894   -0.572756565493
 H    1.584448133429   -2.566601684106    0.823243434507
 H    1.736448133429    2.398398315894    1.358243434507
 H    2.342448133429   -3.454601684106    3.190243434507
 H    3.489448133429   -3.057601684106    4.464243434507
 H    4.006448133429   -0.494601684106    4.795243434507
 H    3.147448133429    1.676398315894    3.714243434507
 H    4.063515133429   -3.349011684106    2.781583434507
