15
0 1 
 C   -0.102191766611   -2.377523836744   -0.537799957414
 C    0.081808233389    1.803476163256    0.407200042586
 C   -1.058191766611    1.071476163256    0.718200042586
 C    1.157808233389    1.177476163256   -0.208799957414
 C   -1.118191766611   -0.283523836744    0.411200042586
 C    1.091808233389   -0.174523836744   -0.515799957414
 C   -0.045191766611   -0.912523836744   -0.211799957414
 H    0.140808233389    2.856476163256    0.638200042586
 H   -1.891191766611    1.552476163256    1.210200042586
 H    2.046808233389    1.746476163256   -0.444799957414
 H   -2.006191766611   -0.848523836744    0.660200042586
 H    1.936808233389   -0.651523836744   -0.996799957414
 H   -0.648191766611   -2.896523836744    0.252200042586
 H    0.904808233389   -2.780523836744   -0.556799957414
 H   -0.574835766611   -2.601975736744   -1.505389957414
