13
1 1 
 C   -0.387720709303    1.670802826048   -1.126129970844
 C    0.087279290697   -0.391197173952    0.292870029156
 N    0.389279290697    0.840802826048   -0.165129970844
 N   -1.026720709303   -1.023197173952   -0.062129970844
 N    0.962279290697   -1.043197173952    1.056870029156
 H    1.201279290697    1.299802826048    0.221870029156
 H   -1.673720709303   -0.588197173952   -0.704129970844
 H   -1.229720709303   -1.943197173952    0.300870029156
 H    1.855279290697   -0.624197173952    1.277870029156
 H    0.750279290697   -1.966197173952    1.408870029156
 H   -1.265720709303    2.055802826048   -0.604129970844
 H   -0.718720709303    1.029802826048   -1.945129970844
 H    0.144938290697    2.529132826048   -1.561499970844
