23
0 1 
 C    2.110655301474    2.565549850397   -0.794238642868
 C    2.938655301474    3.170549850397   -1.924238642868
 H    1.087655301474    2.381549850397   -1.124238642868
 H    2.541655301474    1.607549850397   -0.499238642868
 H    2.103655301474    3.229549850397    0.070761357132
 H    2.861655301474    2.512549850397   -2.791238642868
 H    2.556955301474    4.167399850397   -2.189918642868
 H    3.996755301474    3.233809850397   -1.630238642868
 C   -2.740344698526   -0.068450149603   -0.802238642868
 C   -0.573344698526    0.262549850397    0.433761357132
 C   -1.551344698526   -0.601450149603   -0.046238642868
 C    0.513655301474   -0.232450149603    1.143761357132
 C    0.623655301474   -1.595450149603    1.392761357132
 C   -1.438344698526   -1.963450149603    0.211761357132
 C   -0.354344698526   -2.462450149603    0.923761357132
 H   -0.653344698526    1.324549850397    0.247761357132
 H    1.286655301474    0.442549850397    1.473761357132
 H   -3.145344698526    0.774549850397   -0.246238642868
 H   -3.505344698526   -0.835450149603   -0.832238642868
 H    1.471655301474   -1.981450149603    1.941761357132
 H   -2.209344698526   -2.623450149603   -0.143238642868
 H   -0.272344698526   -3.524450149603    1.117761357132
 H   -2.511584698526    0.305169850397   -1.811238642868
