27
0 1 
 C    2.066348563886   -1.610779924531    0.457980992809
 C    2.788348563886   -2.775779924531   -0.220019007191
 C    3.063348563886   -0.714779924531    1.151980992809
 H    1.511348563886   -1.038779924531   -0.285019007191
 H    1.362348563886   -2.005779924531    1.191980992809
 H    3.463348563886   -3.246779924531    0.500980992809
 H    3.666348563886   -1.296779924531    1.850980992809
 H    3.727348563886   -0.264779924531    0.412980992809
 H    3.373618563886   -2.428066924531   -1.084059007191
 H    2.049718563886   -3.532304924531   -0.523489007191
 H    2.556958563886    0.093560075469    1.699850992809
 C   -0.245651436114   -0.400779924531   -2.748019007191
 C   -1.405651436114   -0.613779924531   -0.551019007191
 C   -0.665651436114    0.163220075469   -1.427019007191
 C   -1.793651436114   -0.123779924531    0.657980992809
 C   -0.349651436114    1.473220075469   -1.082019007191
 C   -1.491651436114    1.192220075469    1.005980992809
 C   -0.748651436114    1.993220075469    0.138980992809
 O   -1.884651436114    1.696220075469    2.212980992809
 H   -1.656651436114   -1.630779924531   -0.818019007191
 H   -2.351651436114   -0.741779924531    1.346980992809
 H   -0.507651436114   -1.459779924531   -2.798019007191
 H    0.841348563886   -0.330779924531   -2.813019007191
 H    0.221348563886    2.090220075469   -1.765019007191
 H   -0.501651436114    3.012220075469    0.403980992809
 H   -1.647651436114    2.625220075469    2.304980992809
 H   -0.694085436114    0.116420075469   -3.609069007191
