8
0 1 
 C    0.605580500020    0.335276232931    0.294628129198
 C   -0.605419499980   -0.331723767069   -0.294371870802
 H    0.566580500020    0.283276232931    1.382628129198
 H    1.520580500020   -0.159723767069   -0.035371870802
 H    0.580580500020    1.380276232931   -0.004371870802
 H   -0.754419499980   -1.282723767069    0.218628129198
 H   -1.517779499980    0.276996232931   -0.210381870802
 H   -0.397459499980   -0.540399767069   -1.354181870802
