20
0 1 
 C    1.079868967778    1.707846916448   -1.726084083924
 C   -0.429131032222    0.625846916448    1.398915916076
 C    0.165868967778    1.246846916448   -0.627084083924
 C   -1.160131032222    0.954846916448   -0.646084083924
 N    0.602868967778    1.033846916448    0.666915916076
 N   -1.508131032222    0.570846916448    0.627915916076
 H   -0.398131032222    0.362846916448    2.451915916076
 H   -2.420131032222    0.235846916448    0.947915916076
 H   -1.801131032222    0.966846916448   -1.498084083924
 H    2.065868967778    1.286846916448   -1.539084083924
 H    1.140868967778    2.792846916448   -1.671084083924
 H    0.753085967778    1.419296916448   -2.736014083924
 C    0.805868967778   -2.892153083552    0.889915916076
 C    0.361868967778   -2.702153083552   -0.551084083924
 H    1.685868967778   -2.282153083552    1.092915916076
 H    0.005868967778   -2.574153083552    1.559915916076
 H    1.048868967778   -3.933153083552    1.088915916076
 H    0.342868967778   -1.638153083552   -0.788084083924
 H   -0.657131032222   -3.084153083552   -0.610084083924
 H    0.997479967778   -3.240583083552   -1.269474083924
