8
0 1 
 C    0.567286663456    0.356655802015   -0.370797530958
 C   -0.569713336544   -0.350344197985    0.373202469042
 H    1.083286663456    1.055655802015    0.285202469042
 H    1.290286663456   -0.381344197985   -0.717797530958
 H    0.152286663456    0.877655802015   -1.225797530958
 H   -0.127713336544   -0.805344197985    1.227202469042
 H   -1.383613336544    0.335913802015    0.650002469042
 H   -0.985639336544   -1.157688197985   -0.247447530958
