15
0 1 
 C   -1.096546708785   -0.161118272014   -2.178001255823
 C    0.832453291215    0.123881727986    1.656998744177
 C    1.253453291215   -0.832118272014    0.728998744177
 C   -0.215546708785    0.984881727986    1.335998744177
 C    0.626453291215   -0.920118272014   -0.516001255823
 C   -0.836546708785    0.888881727986    0.089998744177
 C   -0.419546708785   -0.061118272014   -0.842001255823
 H    1.291453291215    0.194881727986    2.627998744177
 H    2.030453291215   -1.537118272014    0.968998744177
 H   -0.560546708785    1.709881727986    2.059998744177
 H    0.943453291215   -1.675118272014   -1.220001255823
 H   -1.665546708785    1.538881727986   -0.139001255823
 H   -0.459546708785   -0.708118272014   -2.873001255823
 H   -1.214546708785    0.849881727986   -2.567001255823
 H   -2.081816708785   -0.649078272014   -2.144171255823
