12
0 1 
 C    1.450506911291   -1.796170166158    1.113069341125
 O    0.941506911291   -1.001170166158    0.055069341125
 H    1.010506911291   -0.058170166158    0.276069341125
 H    0.917506911291   -2.747170166158    1.137069341125
 H    1.297506911291   -1.296170166158    2.064069341125
 H    2.523466911291   -1.976089166158    0.950629341125
 C   -1.863493088709    1.193829833842   -0.760930658875
 O   -0.540493088709    1.471829833842   -0.427930658875
 H   -0.520493088709    2.422829833842   -0.201930658875
 H   -2.502493088709    1.957829833842   -0.317930658875
 H   -2.138493088709    0.227829833842   -0.335930658875
 H   -2.034533088709    1.171362833842   -1.847320658875
