16
0 1 
 C   -0.308157195932    1.039859521252    1.205220191280
 C    0.204842804068    1.500859521252    2.566220191280
 H   -0.418157195932   -0.043140478748    1.175220191280
 H   -1.287157195932    1.480859521252    1.044220191280
 H    0.372842804068    1.357859521252    0.415220191280
 H   -0.492157195932    1.161859521252    3.333220191280
 H    1.199322804068    1.073829521252    2.762812491280
 H    0.256262804068    2.599499521252    2.585049791280
 C   -0.614157195932   -0.951140478748   -2.041779808720
 C    0.715842804068   -1.598140478748   -1.732779808720
 H   -1.415157195932   -1.469140478748   -1.514779808720
 H   -0.581157195932    0.078859521252   -1.690779808720
 H   -0.807157195932   -0.936140478748   -3.113779808720
 H    0.834842804068   -1.678140478748   -0.650779808720
 H    1.502842804068   -0.943140478748   -2.101779808720
 H    0.854222804068   -2.581119478748   -2.206703808720
