28
0 1 
 C    0.096666504954   -0.040921859013    2.680467877125
 C    0.705666504954    0.163078140987    4.087467877125
 C   -0.084333495046   -1.527921859013    2.435467877125
 O    0.837666504954   -2.304921859013    2.354467877125
 N   -1.322333495046   -2.001921859013    2.472467877125
 H   -0.853333495046    0.476078140987    2.596467877125
 H    0.772666504954    0.367078140987    1.928467877125
 H    0.856666504954    1.229078140987    4.252467877125
 H    1.686666504954   -0.312921859013    4.114467877125
 H   -1.462333495046   -2.992921859013    2.359467877125
 H   -2.105333495046   -1.365921859013    2.585467877125
 H    0.083046504954   -0.249363859013    4.895077877125
 C    2.362666504954    2.368078140987   -2.570532122875
 C   -0.719333495046    1.058078140987   -0.735532122875
 C   -1.147333495046    0.057078140987   -1.590532122875
 C    0.432666504954    1.791078140987   -1.026532122875
 C    1.168666504954    1.526078140987   -2.195532122875
 C   -0.430333495046   -0.210921859013   -2.751532122875
 C    0.694666504954    0.531078140987   -3.054532122875
 O   -2.273333495046   -0.650921859013   -1.307532122875
 H   -1.279333495046    1.257078140987    0.165467877125
 H    0.756666504954    2.569078140987   -0.345532122875
 H   -0.757333495046   -0.993921859013   -3.422532122875
 H   -2.443333495046   -1.343921859013   -1.955532122875
 H    3.157666504954    1.733078140987   -2.954532122875
 H    2.734666504954    2.864078140987   -1.672532122875
 H    1.235666504954    0.325078140987   -3.968532122875
 H    2.106286504954    3.120213140987   -3.331162122875
