8
0 1 
 C   -0.440631164251    0.030976520828   -0.618144916338
 C    0.443368835749   -0.031023479172    0.620855083662
 H   -0.390631164251    1.029976520828   -1.048144916338
 H   -0.094631164251   -0.698023479172   -1.348144916338
 H   -1.470631164251   -0.192023479172   -0.344144916338
 H    0.383368835749   -1.034023479172    1.049855083662
 H    0.059108835749    0.712576520828    1.334575083662
 H    1.480818835749    0.182076520828    0.323735083662
