24
1 1 
 C    0.038053713835    0.778388274232    2.470676454793
 C   -0.737946286165    1.249388274232    3.698676454793
 H    1.022053713835    1.248388274232    2.450676454793
 H    0.187053713835   -0.294611725768    2.476676454793
 H   -0.471946286165    1.096388274232    1.572676454793
 H   -1.476946286165    0.491388274232    3.955676454793
 H   -1.272236286165    2.185147274232    3.477566454793
 H   -0.059206286165    1.369378274232    4.555946454793
 C   -0.883946286165   -1.085611725768   -0.232323545207
 C   -2.222946286165   -1.696611725768   -0.628323545207
 C    0.933053713835    0.172388274232   -1.346323545207
 N   -0.322946286165   -0.242611725768   -1.288323545207
 N    1.810053713835   -0.180611725768   -0.430323545207
 N    1.315053713835    0.928388274232   -2.347323545207
 H   -1.119946286165   -0.481611725768    0.626676454793
 H   -0.192946286165   -1.876611725768    0.069676454793
 H   -2.825946286165   -0.980611725768   -1.188323545207
 H   -2.758946286165   -1.950611725768    0.286676454793
 H   -0.941946286165    0.051388274232   -2.031323545207
 H    1.535053713835   -0.786611725768    0.322676454793
 H    2.771053713835    0.116388274232   -0.498323545207
 H    0.664053713835    1.190388274232   -3.072323545207
 H    2.290053713835    1.147388274232   -2.475323545207
 H   -2.066436286165   -2.614037725768   -1.214693545207
