15
0 1 
 C   -0.098515848232    2.165329701310    1.075422014838
 C   -1.218515848232    0.110329701310    0.183422014838
 C   -0.047515848232    0.808329701310    0.486422014838
 C   -1.162515848232   -1.108670298690   -0.511577985162
 C    1.178484151768    0.279329701310    0.108422014838
 C    0.098484151768   -1.626670298690   -0.890577985162
 C    1.260484151768   -0.914670298690   -0.564577985162
 H   -2.182515848232    0.526329701310    0.436422014838
 H   -2.072515848232   -1.637670298690   -0.762577985162
 H    0.842484151768    2.376329701310    1.585422014838
 H   -0.889515848232    2.201329701310    1.823422014838
 H    2.085484151768    0.834329701310    0.306422014838
 H    0.161484151768   -2.554670298690   -1.443577985162
 H    2.215484151768   -1.268670298690   -0.912577985162
 H   -0.284089848232    2.936285701310    0.313064014838
