33
0 1 
 C    1.750454745375    0.023880231926   -2.970149727423
 C    1.294454745375   -1.419119768074   -2.752149727423
 C    2.261454745375    0.246880231926   -4.395149727423
 H    0.921454745375    0.705880231926   -2.771149727423
 H    2.548454745375    0.219880231926   -2.260149727423
 H    1.693454745375   -1.803119768074   -1.824149727423
 H    1.591454745375   -2.047119768074   -3.586149727423
 H    2.651454745375   -0.701119768074   -4.766149727423
 H    1.420454745375    0.555880231926   -5.013149727423
 H    0.200434745375   -1.512019768074   -2.685199727423
 H    3.050154745375    1.011080231926   -4.457809727423
 C    1.889454745375    1.133880231926    0.643850272577
 C    2.234454745375    2.058880231926    1.814850272577
 C    0.395454745375    0.909880231926    0.477850272577
 C   -0.503545254625    1.806880231926   -0.009149727423
 C   -0.382545254625   -0.206119768074    0.971850272577
 C   -1.759545254625    0.108880231926    0.756850272577
 C   -0.061545254625   -1.430119768074    1.597850272577
 C   -2.794545254625   -0.736119768074    1.134850272577
 C   -1.107545254625   -2.277119768074    1.975850272577
 C   -2.457545254625   -1.929119768074    1.746850272577
 N   -1.792545254625    1.338880231926    0.153850272577
 H    2.235454745375    1.704880231926   -0.213149727423
 H    2.374454745375    0.152880231926    0.635850272577
 H    1.833454745375    3.051880231926    1.591850272577
 H   -0.145545254625    2.739880231926   -0.434149727423
 H   -2.637545254625    1.830880231926   -0.119149727423
 H    0.964454745375   -1.723119768074    1.805850272577
 H   -3.819545254625   -0.444119768074    0.943850272577
 H   -0.858545254625   -3.216119768074    2.454850272577
 H   -3.246545254625   -2.601119768074    2.048850272577
 H    3.326394745375    2.118580231926    1.933570272577
 H    1.766214745375    1.696780231926    2.742010272577
