15
-1 1 
 C    2.171627482523    0.741957582767    0.685428877937
 C    2.860627482523    0.124957582767    1.906428877937
 H    2.669627482523    1.667957582767    0.394428877937
 H    2.190627482523    0.038957582767   -0.148571122063
 H    1.130627482523    0.962957582767    0.926428877937
 H    2.329627482523   -0.797042417233    2.155428877937
 H    2.805907482523    0.803287582767    2.770648877937
 H    3.898077482523   -0.150932417233    1.666468877937
 C   -0.893372517477    0.374957582767   -1.930571122063
 C   -1.302372517477   -0.268042417233   -0.610571122063
 O   -1.130372517477   -1.433042417233   -0.388571122063
 O   -1.794372517477    0.436957582767    0.287428877937
 H   -0.258372517477    1.229957582767   -1.702571122063
 H   -1.785372517477    0.739957582767   -2.445571122063
 H   -0.336761517477   -0.281742417233   -2.615351122063
