16
0 1 
 C   -2.126174616833    0.790412502869    1.883942003641
 C   -1.315174616833    0.214412502869   -0.450057996359
 C   -1.027174616833    0.399412502869    0.909942003641
 C   -0.314174616833   -0.165587497131   -1.350057996359
 C    0.277825383167    0.183412502869    1.354942003641
 C    0.981825383167   -0.372587497131   -0.889057996359
 C    1.280825383167   -0.202587497131    0.463942003641
 O    1.963825383167   -0.745587497131   -1.764057996359
 H   -2.304174616833    0.414412502869   -0.823057996359
 H   -0.531174616833   -0.299587497131   -2.397057996359
 H   -1.952174616833    0.271412502869    2.824942003641
 H   -3.073174616833    0.429412502869    1.487942003641
 H    0.515825383167    0.303412502869    2.404942003641
 H    2.285825383167   -0.373587497131    0.823942003641
 H    2.811825383167   -0.862587497131   -1.320057996359
 H   -2.222354616833    1.866382502869    2.091382003641
