7
-1 1 
 C   -0.252888113225    0.930633613983   -1.070038339509
 C    0.021111886775   -0.049366386017    0.060961660491
 O    1.068111886775   -0.737366386017    0.039961660491
 O   -0.829888113225   -0.144366386017    0.972961660491
 H   -0.734888113225    1.823633613983   -0.673038339509
 H   -0.944888113225    0.461633613983   -1.772038339509
 H    0.658711886775    1.215373813983   -1.615848339509
