19
0 1 
 C    1.525993062507    0.918594054012    1.815481483782
 C    1.298993062507    0.109594054012    3.112481483782
 C    0.669993062507    0.445594054012    0.654481483782
 C   -0.584006937493    1.020594054012    0.418481483782
 C    1.107993062507   -0.586405945988   -0.191518516218
 C   -1.389006937493    0.583594054012   -0.630518516218
 C    0.295993062507   -1.043405945988   -1.244518516218
 C   -0.956006937493   -0.452405945988   -1.455518516218
 O   -1.760006937493   -0.884405945988   -2.471518516218
 H    1.312993062507    1.970594054012    2.013481483782
 H    2.575993062507    0.847594054012    1.530481483782
 H    1.896993062507    0.562594054012    3.898481483782
 H   -0.937006937493    1.819594054012    1.057481483782
 H    2.076993062507   -1.042405945988   -0.026518516218
 H   -2.348006937493    1.042594054012   -0.796518516218
 H    0.627993062507   -1.844405945988   -1.890518516218
 H   -2.590006937493   -0.396405945988   -2.509518516218
 H    1.614451062507   -0.938665945988    3.004561483782
 H    0.246400062507    0.158824054012    3.428114483782
