7
-1 1 
 C   -1.239107694856   -0.466589230796   -0.549259195157
 C    0.081892305144    0.023410769204    0.039740804843
 O    0.533892305144    1.084410769204   -0.447259195157
 O    0.632892305144   -0.643589230796    0.960740804843
 H   -1.358107694856   -0.087589230796   -1.563259195157
 H   -2.057107694856   -0.068589230796    0.050740804843
 H   -1.323737694856   -1.563129230796   -0.570059195157
