27
0 1 
 C    0.831178271430   -2.662391389367   -0.590343984374
 C    0.027178271430   -3.153391389367   -1.787343984374
 H    0.169178271430   -2.416391389367    0.234656015626
 H    1.527178271430   -3.435391389367   -0.270343984374
 H    1.396178271430   -1.779391389367   -0.874343984374
 H    0.740178271430   -3.455391389367   -2.552343984374
 H   -0.637611728570   -2.352921389367   -2.144143984374
 H   -0.564381728570   -4.040011389367   -1.515373984374
 C    2.715178271430    1.372608610633   -0.469343984374
 C   -0.591821728570    0.234608610633    0.975656015626
 C    0.156178271430    0.883608610633   -0.058343984374
 C    1.556178271430    0.799608610633    0.298656015626
 C    1.590178271430    0.169608610633    1.512656015626
 C   -1.980821728570    0.121608610633    0.936656015626
 C   -2.626821728570    0.630608610633   -0.163343984374
 C   -0.556821728570    1.389608610633   -1.156343984374
 C   -1.943821728570    1.257608610633   -1.176343984374
 N    0.315178271430   -0.192391389367    1.917656015626
 H    0.102178271430   -0.670391389367    2.785656015626
 H   -2.516821728570   -0.323391389367    1.758656015626
 H    2.490178271430   -0.024391389367    2.078656015626
 H   -3.704821728570    0.555608610633   -0.225343984374
 H   -0.033821728570    1.881608610633   -1.965343984374
 H    3.497178271430    1.677608610633    0.225656015626
 H    2.344178271430    2.268608610633   -0.965343984374
 H   -2.505821728570    1.662608610633   -2.005343984374
 H    3.129348271430    0.697688610633   -1.232853984374
