11
0 1 
 C   -0.388227939496   -0.413312964048   -0.149397976206
 C   -0.575227939496    1.091687035952   -0.437397976206
 C    0.935772060504   -0.702312964048    0.575602023794
 H   -1.221227939496   -0.759312964048    0.458602023794
 H   -0.402227939496   -0.989312964048   -1.068397976206
 H    0.358772060504    1.493687035952   -0.830397976206
 H    0.928772060504   -0.279312964048    1.578602023794
 H    1.079772060504   -1.779312964048    0.656602023794
 H    1.768772060504   -0.281312964048    0.013602023794
 H   -1.374417939496    1.260127035952   -1.174229976206
 H   -0.808587939496    1.619787035952    0.498902023794
