8
0 1 
 C   -0.336877148338   -0.475211463021   -0.493412137115
 C    0.335122851662    0.477788536979    0.496587862885
 H    0.300122851662   -1.336211463021   -0.678412137115
 H   -0.506877148338    0.007788536979   -1.452412137115
 H   -1.297877148338   -0.807211463021   -0.102412137115
 H    1.350122851662    0.678788536979    0.147587862885
 H    0.385309851662   -0.004723463021    1.483837862885
 H   -0.209913148338    1.430884536979    0.563997862885
