20
0 1 
 C    1.940895418845   -0.304736830473    0.906321189872
 C    0.583895418845   -2.201736830473    0.094321189872
 N   -0.179104581155   -1.389736830473   -0.612678810128
 N    1.582895418845   -1.722736830473    0.817321189872
 N    0.347895418845   -3.497736830473    0.076321189872
 H   -0.018104581155   -0.376736830473   -0.580678810128
 H   -0.768104581155   -1.765736830473   -1.331678810128
 H    2.121895418845   -2.400736830473    1.355321189872
 H    0.927895418845   -4.087736830473    0.660321189872
 H   -0.422104581155   -3.889736830473   -0.439678810128
 H    2.508895418845   -0.155736830473    1.826321189872
 H    1.050895418845    0.322263169527    0.969321189872
 H    2.568495418845    0.001847969527    0.056540189872
 C   -1.018104581155    3.702263169527   -0.594678810128
 C   -1.074104581155    2.212263169527   -0.291678810128
 O   -0.241104581155    1.476263169527   -0.866678810128
 O   -1.934104581155    1.763263169527    0.504321189872
 H   -1.086104581155    3.841263169527   -1.675678810128
 H   -0.050104581155    4.067263169527   -0.254678810128
 H   -1.800624581155    4.295630169527   -0.099127810128
