27
0 1 
 C   -1.424657538566   -2.195649725588   -1.081004239773
 C    0.034342461434   -0.009649725588   -0.752004239773
 C   -0.457657538566   -1.124649725588   -1.523004239773
 C    0.891342461434    0.762350274412   -1.595004239773
 C    0.085342461434   -1.012649725588   -2.748004239773
 C   -0.168657538566    0.419350274412    0.579995760227
 C    0.472342461434    1.583350274412    1.030995760227
 C    1.313342461434    2.331350274412    0.171995760227
 C    1.533342461434    1.925350274412   -1.151004239773
 N    0.906342461434    0.118350274412   -2.820004239773
 H   -0.811657538566   -0.122649725588    1.266995760227
 H    0.305342461434    1.896350274412    2.056995760227
 H    1.791342461434    3.230350274412    0.540995760227
 H   -1.758657538566   -2.725649725588   -1.978004239773
 H   -2.283657538566   -1.683649725588   -0.643004239773
 H   -0.169657538566   -1.764649725588   -3.486004239773
 H    1.431342461434    0.429350274412   -3.632004239773
 H    2.173342461434    2.471350274412   -1.832004239773
 H   -1.016887538566   -2.885609725588   -0.327554239773
 C   -0.671657538566   -0.734649725588    4.201995760227
 C   -1.968657538566   -1.435649725588    4.606995760227
 H   -0.858657538566    0.327350274412    4.051995760227
 H    0.070342461434   -0.859649725588    4.989995760227
 H   -0.295657538566   -1.170649725588    3.276995760227
 H   -2.337657538566   -1.001649725588    5.535995760227
 H   -1.763657538566   -2.493649725588    4.763995760227
 H   -2.767465538566   -1.350169725588    3.855595760227
