8
0 1 
 C    0.370909331107    0.203422870451   -0.628093312939
 C   -0.372090668893   -0.206577129549    0.627906687061
 H    0.617909331107   -0.681577129549   -1.215093312939
 H   -0.251090668893    0.866422870451   -1.230093312939
 H    1.288909331107    0.730422870451   -0.361093312939
 H   -0.577090668893    0.683422870451    1.210906687061
 H    0.262189331107   -0.873977129549    1.229790687061
 H   -1.326760668893   -0.687157129549    0.367804687061
