8
0 1 
 C    0.424524837142    0.367294635818   -0.525067637255
 C   -0.427475162858   -0.365705364182    0.521932362745
 H   -0.115475162858    1.231294635818   -0.916067637255
 H    1.353524837142    0.709294635818   -0.067067637255
 H    0.664524837142   -0.309705364182   -1.347067637255
 H    0.162524837142   -1.184705364182    0.927932362745
 H   -1.350665162858   -0.783269364182    0.093716362745
 H   -0.679305162858    0.318167635818    1.345885362745
