18
-1 1 
 C    1.618906427823    2.284421316473    1.352969880627
 C    2.290906427823    3.237421316473    2.342969880627
 H    2.255906427823    1.423421316473    1.167969880627
 H    1.448906427823    2.767421316473    0.393969880627
 H    0.657906427823    1.952421316473    1.743969880627
 H    3.305906427823    3.438421316473    1.993969880627
 H    2.341093427823    2.754909316473    3.330219880627
 H    1.745870427823    4.190517316473    2.410379880627
 C   -0.053093572177   -0.670578683527   -0.171030119373
 C    0.934906427823   -0.195578683527   -1.217030119373
 C   -1.281093572177   -1.393578683527   -0.684030119373
 O   -1.768093572177   -1.231578683527   -1.814030119373
 O   -1.836093572177   -2.178578683527    0.119969880627
 H    0.476906427823   -1.318578683527    0.531969880627
 H   -0.375093572177    0.194421316473    0.404969880627
 H    1.749906427823    0.331421316473   -0.724030119373
 H    0.423906427823    0.528421316473   -1.852030119373
 H    1.370545427823   -0.982469283527   -1.850290119373
