24
0 1 
 C    2.532359677283    1.332590521836   -2.835475614836
 C    1.559359677283    1.364590521836   -4.035475614836
 H    2.404359677283    2.214590521836   -2.207475614836
 H    2.323359677283    0.450590521836   -2.232475614836
 H    3.573359677283    1.255590521836   -3.144475614836
 H    1.618359677283    0.411590521836   -4.561475614836
 H    1.839619677283    2.172010521836   -4.727955614836
 H    0.543239677283    1.507760521836   -3.639245614836
 C   -2.430640322717    0.397590521836   -1.164475614836
 C   -0.101640322717    0.099590521836   -0.280475614836
 C   -1.477640322717    0.074590521836   -0.049475614836
 C    0.791359677283   -0.316409478164    0.697524385164
 C   -1.950640322717   -0.365409478164    1.190524385164
 C    0.314359677283   -0.763409478164    1.929524385164
 C   -1.060640322717   -0.782409478164    2.182524385164
 O    1.197359677283   -1.191409478164    2.875524385164
 H    0.282359677283    0.440590521836   -1.219475614836
 H    1.843359677283   -0.284409478164    0.493524385164
 H   -3.251640322717   -0.320409478164   -1.125475614836
 H   -1.908640322717    0.207590521836   -2.102475614836
 H   -3.015640322717   -0.417409478164    1.370524385164
 H   -1.434640322717   -1.132409478164    3.130524385164
 H    0.752359677283   -1.406409478164    3.698524385164
 H   -2.857550322717    1.410510521836   -1.206235614836
