18
0 1 
 C   -1.399469901405    0.128891787591   -1.455710216828
 C   -1.855469901405    1.587891787591   -1.548710216828
 C   -0.363469901405   -0.101108212409   -0.402710216828
 C   -0.741469901405   -0.273108212409    0.911289783172
 C    0.981530098595   -0.165108212409   -0.743710216828
 C    0.225530098595   -0.507108212409    1.858289783172
 C    1.948530098595   -0.387108212409    0.201289783172
 C    1.566530098595   -0.540108212409    1.509289783172
 H   -2.241469901405   -0.517108212409   -1.259710216828
 H   -0.984469901405   -0.173108212409   -2.419710216828
 H   -0.972469901405    2.199891787591   -1.670710216828
 H   -1.784469901405   -0.243108212409    1.195289783172
 H    1.278530098595   -0.051108212409   -1.775710216828
 H   -0.059469901405   -0.657108212409    2.890289783172
 H    2.993530098595   -0.438108212409   -0.077710216828
 H    2.314530098595   -0.718108212409    2.270289783172
 H   -2.365139901405    1.934947787591   -0.637782216828
 H   -2.492239901405    1.721373787591   -2.435672216828
