15
0 1 
 C    1.005181375083   -1.718372765825    1.429367273747
 C   -1.103818624917    1.245627234175    0.267367273747
 C   -0.777818624917    1.302627234175   -1.074632726253
 C   -0.508818624917    0.251627234175    1.074367273747
 C    0.379181375083   -0.679372765825    0.545367273747
 C    0.150181375083    0.413627234175   -1.613632726253
 C    0.724181375083   -0.604372765825   -0.808632726253
 H   -1.812818624917    1.941627234175    0.687367273747
 H   -1.262818624917    2.024627234175   -1.707632726253
 H   -0.762818624917    0.209627234175    2.123367273747
 H    0.404181375083    0.474627234175   -2.663632726253
 H    1.235181375083   -1.277372765825    2.401367273747
 H    1.959181375083   -1.973372765825    0.968367273747
 H    1.427181375083   -1.304372765825   -1.236632726253
 H    0.381221375083   -2.612382765825    1.575767273747
