8
0 1 
 C    0.382918952757   -0.637779541128    0.180827931208
 C   -0.379081047243    0.642220458872   -0.181172068792
 H    1.209918952757   -0.411779541128    0.853827931208
 H   -0.298081047243   -1.323779541128    0.681827931208
 H    0.756918952757   -1.147779541128   -0.705172068792
 H   -1.141081047243    0.395220458872   -0.916172068792
 H    0.305055952757    1.383670458872   -0.619592068792
 H   -0.878429047243    1.051570458872    0.709377931208
