27
0 1 
 C   -1.498369490859   -3.959406211628   -0.964404595385
 C   -1.406369490859   -4.542406211628   -2.378404595385
 H   -0.646369490859   -3.307406211628   -0.773404595385
 H   -2.417369490859   -3.384406211628   -0.853404595385
 H   -1.521369490859   -4.741406211628   -0.208404595385
 H   -2.266369490859   -5.190406211628   -2.553404595385
 H   -0.485539490859   -5.134366211628   -2.486354595385
 H   -1.412809490859   -3.730656211628   -3.120714595385
 C   -2.588369490859    1.059593788372    0.942595404615
 C   -1.087369490859   -0.264406211628   -0.669404595385
 C   -1.284369490859    0.652593788372    0.320595404615
 C    0.961630509141    0.521593788372   -0.190404595385
 C    0.015630509141    1.173593788372    0.649595404615
 C    2.327630509141    0.796593788372   -0.132404595385
 C    0.479630509141    2.127593788372    1.570595404615
 C    2.759630509141    1.743593788372    0.782595404615
 C    1.849630509141    2.404593788372    1.628595404615
 N    0.252630509141   -0.345406211628   -0.981404595385
 H   -1.867369490859   -0.834406211628   -1.157404595385
 H    0.646630509141   -0.907406211628   -1.732404595385
 H   -2.621369490859    2.148593788372    0.972595404615
 H   -2.569369490859    0.724593788372    1.970595404615
 H    3.023630509141    0.290593788372   -0.782404595385
 H   -0.217369490859    2.638593788372    2.218595404615
 H    3.811630509141    1.989593788372    0.827595404615
 H    2.217630509141    3.144593788372    2.326595404615
 H   -3.482299490859    0.690363788372    0.418615404615
