20
0 1 
 C   -1.828280352663    2.290584811179   -0.772643091928
 C   -2.644280352663    1.867584811179   -1.983643091928
 H   -2.348280352663    2.020584811179    0.145356908072
 H   -0.857280352663    1.800584811179   -0.795643091928
 H   -1.671280352663    3.367584811179   -0.796643091928
 H   -2.061280352663    2.131584811179   -2.864643091928
 H   -3.610790352663    2.392814811179   -1.982923091928
 H   -2.810950352663    0.780284811179   -1.982923091928
 C    1.680719647337    0.040584811179    2.377356908072
 C    1.225719647337    0.021584811179   -0.177643091928
 C    1.100719647337   -0.460415188821    1.086356908072
 C   -0.003280352663   -1.802415188821   -0.261643091928
 N    0.528719647337   -0.834415188821   -1.001643091928
 N    0.328719647337   -1.601415188821    1.010356908072
 H    1.788719647337    0.897584811179   -0.474643091928
 H    0.451719647337   -0.764415188821   -2.009643091928
 H    0.912719647337   -0.006415188821    3.149356908072
 H    1.921719647337    1.076584811179    2.218356908072
 H   -0.602280352663   -2.625415188821   -0.637643091928
 H    2.554219647337   -0.534805188821    2.717846908072
