17
0 1 
 C   -1.084420475806   -1.803677337725    1.100947262993
 C   -2.295420475806   -2.470677337725    0.511947262993
 H   -1.123420475806   -1.855677337725    2.188947262993
 H   -0.169420475806   -2.298677337725    0.770947262993
 H   -1.109420475806   -0.758677337725    0.801947262993
 H   -2.444420475806   -3.421677337725    1.024947262993
 H   -3.207780475806   -1.861957337725    0.595937262993
 H   -2.087460475806   -2.679353337725   -0.547862737007
 C    1.107579524194    1.169322662275   -1.837052737007
 C    0.816579524194    1.138322662275   -0.349052737007
 O    0.344579524194    2.093322662275    0.239947262993
 N    1.145579524194    0.026322662275    0.268947262993
 H    0.397579524194    0.508322662275   -2.327052737007
 H    2.111579524194    0.779322662275   -2.010052737007
 H    0.990579524194   -0.031677337725    1.262947262993
 H    1.561579524194   -0.739677337725   -0.238052737007
 H    1.027349524194    2.188714662275   -2.242512737007
