16
0 1 
 C   -1.164467967701    0.834587871036    1.316537666833
 C   -0.297467967701    2.031587871036    1.672537666833
 H   -1.985467967701    0.741587871036    2.026537666833
 H   -1.581467967701    0.984587871036    0.319537666833
 H   -0.588467967701   -0.088412128964    1.306537666833
 H    0.493532032299    2.143587871036    0.929537666833
 H    0.154232032299    1.855177871036    2.659879666833
 H   -0.895557967701    2.954287871036    1.702751666833
 C   -0.050467967701   -1.477412128964   -1.562462333167
 C    1.512532032299   -1.385412128964   -1.432462333167
 H   -0.370467967701   -0.980412128964   -2.479462333167
 H   -0.356467967701   -2.522412128964   -1.600462333167
 H   -0.529467967701   -1.001412128964   -0.712462333167
 H    1.749532032299   -1.836412128964   -0.475462333167
 H    1.870022032299   -0.346142128964   -1.386539333167
 H    2.038522032299   -1.943932128964   -2.220746333167
