8
0 1 
 C   -0.069923283014   -0.451424956717    0.608521119763
 C    0.073076716986    0.447575043283   -0.610478880237
 H    0.683076716986   -1.232424956717    0.565521119763
 H    0.054076716986    0.136575043283    1.516521119763
 H   -1.061923283014   -0.903424956717    0.612521119763
 H   -0.718923283014    1.187575043283   -0.575478880237
 H   -0.009998983014   -0.154724956717   -1.527176880237
 H    1.016144716986    1.012265043283   -0.568596880237
