8
0 1 
 C   -0.126076090693    0.668125396955   -0.375500229045
 C    0.116923909307   -0.658874603045    0.376499770955
 H    0.699923909307    1.346125396955   -0.181500229045
 H   -0.167076090693    0.482125396955   -1.448500229045
 H   -1.061076090693    1.109125396955   -0.048500229045
 H    1.165923909307   -0.915874603045    0.222499770955
 H   -0.065676090693   -0.624774603045    1.460699770955
 H   -0.463046090693   -1.506874603045   -0.016600229045
