13
1 1 
 C   -0.855183129749   -1.730123458771   -0.466927523770
 C    0.218816870251    0.419876541229    0.116072476230
 N   -0.955183129749    1.015876541229    0.193072476230
 N    0.297816870251   -0.866123458771   -0.185927523770
 N    1.314816870251    1.112876541229    0.342072476230
 H   -1.793183129749    0.501876541229   -0.012927523770
 H   -1.014183129749    1.971876541229    0.532072476230
 H    1.217816870251   -1.277123458771   -0.257927523770
 H    2.219816870251    0.670876541229    0.272072476230
 H    1.261816870251    2.106876541229    0.494072476230
 H   -0.663183129749   -2.248123458771   -1.408927523770
 H   -1.783183129749   -1.174123458771   -0.602927523770
 H   -1.003463129749   -2.494668458771    0.309914336230
