26
0 1 
 C   -2.312507548826   -1.061392431501    1.609237630111
 C   -1.201507548826    1.024607568499   -1.136762369889
 C   -1.909507548826   -0.491392431501    0.282237630111
 C   -1.937507548826   -1.043392431501   -0.966762369889
 N   -1.435507548826    0.795607568499    0.149237630111
 N   -1.492507548826   -0.075392431501   -1.833762369889
 H   -0.832507548826    1.982607568499   -1.484762369889
 H   -1.402507548826   -0.187392431501   -2.835762369889
 H   -2.231507548826   -2.027392431501   -1.310762369889
 H   -1.403507548826   -1.139392431501    2.209237630111
 H   -2.712507548826   -2.056392431501    1.429237630111
 H   -3.068007548826   -0.465692431501    2.142537630111
 C    2.083492451174    0.433607568499    0.398237630111
 C    3.261492451174    1.360607568499    0.563237630111
 C    2.415492451174   -0.482392431501   -0.844762369889
 C    1.887492451174   -0.411392431501    1.677237630111
 H    1.182492451174    1.011607568499    0.206237630111
 H    3.497492451174    1.778607568499   -0.411762369889
 H    4.095492451174    0.765607568499    0.926237630111
 H    3.325492451174   -1.057392431501   -0.662762369889
 H    1.598492451174   -1.148392431501   -1.043762369889
 H    2.553492451174    0.122607568499   -1.742762369889
 H    1.701492451174    0.232607568499    2.533237630111
 H    1.031492451174   -1.071392431501    1.548237630111
 H    2.778492451174   -1.009392431501    1.866237630111
 H    3.338782451174    2.253407568499    1.201087630111
