7
-1 1 
 C    0.587950630725    0.450895897465    1.231406917730
 C   -0.031049369275   -0.030104102535   -0.067593082270
 O   -1.255049369275   -0.285104102535   -0.090593082270
 O    0.699950630725   -0.141104102535   -1.075593082270
 H   -0.117049369275    0.274895897465    2.047406917730
 H    0.752950630725    1.526895897465    1.150406917730
 H    1.542990630725   -0.047854102535    1.453074917730
