25
-1 1 
 C   -1.899855389900   -0.655937107268   -0.242963451907
 C   -3.291855389900   -0.387937107268    0.304036548093
 C   -1.786855389900   -0.642937107268   -1.758963451907
 O   -2.793855389900   -0.493937107268   -2.472963451907
 O   -0.628855389900   -0.831937107268   -2.232963451907
 H   -1.233855389900    0.108062892732    0.155036548093
 H   -1.546855389900   -1.620937107268    0.129036548093
 H   -3.618855389900    0.593062892732   -0.042963451907
 H   -3.250585389900   -0.423957907268    1.402676548093
 H   -3.999525389900   -1.153137707268   -0.047643451907
 C    3.240144610100    0.636062892732   -0.837963451907
 C    0.424144610100    0.357062892732    2.414036548093
 C    0.711144610100    1.575062892732    1.814036548093
 C    1.066144610100   -0.779937107268    1.954036548093
 C    1.645144610100    1.663062892732    0.795036548093
 C    2.006144610100   -0.672937107268    0.927036548093
 C    2.303144610100    0.548062892732    0.340036548093
 H   -0.314855389900    0.288062892732    3.198036548093
 H    0.202144610100    2.470062892732    2.141036548093
 H    0.827144610100   -1.742937107268    2.379036548093
 H    1.818144610100    2.611062892732    0.321036548093
 H    2.484144610100   -1.568937107268    0.559036548093
 H    2.709144610100    1.155062892732   -1.637963451907
 H    3.467144610100   -0.366937107268   -1.201963451907
 H    4.179794610100    1.171271892732   -0.636453451907
