15
0 1 
 C    0.676740388205   -0.889407422698    1.438213887047
 C   -0.355259611795   -0.710407422698    2.583213887047
 C    0.253740388205   -0.240407422698    0.140213887047
 C   -0.083259611795   -0.806407422698   -1.053786112953
 C   -0.211259611795    1.376592577302   -1.286786112953
 N    0.163740388205    1.128592577302   -0.037786112953
 N   -0.366259611795    0.216592577302   -1.921786112953
 H    1.620740388205   -0.427407422698    1.729213887047
 H    0.842740388205   -1.941407422698    1.224213887047
 H   -0.528259611795    0.356592577302    2.723213887047
 H   -0.143259611795   -1.836407422698   -1.351786112953
 H   -0.349259611795    2.386592577302   -1.655786112953
 H   -0.643259611795    0.101592577302   -2.884786112953
 H    0.006620388205   -1.140977422698    3.528543887047
 H   -1.334459611795   -1.066937422698    2.230993887047
