18
-1 1 
 C   -2.204793495442   -2.504453531636   -0.088540407594
 C   -1.926793495442   -2.465453531636   -1.584540407594
 H   -1.366793495442   -2.951453531636    0.443459592406
 H   -2.340793495442   -1.495453531636    0.285459592406
 H   -3.108793495442   -3.080453531636    0.096459592406
 H   -0.994793495442   -1.924453531636   -1.744540407594
 H   -1.812017495442   -3.489113531636   -1.970475407594
 H   -2.734666495442   -1.937200531636   -2.112072407594
 C    0.590206504558    0.003546468364    0.569459592406
 C    1.825206504558   -0.679453531636   -0.020540407594
 C    0.602206504558    1.518546468364    0.419459592406
 O    1.621206504558    2.098546468364   -0.018540407594
 O   -0.424793495442    2.134546468364    0.778459592406
 H   -0.309793495442   -0.412453531636    0.123459592406
 H    0.555206504558   -0.214453531636    1.638459592406
 H    2.716206504558   -0.124453531636    0.278459592406
 H    1.776902794558   -0.720964531636   -1.118695407594
 H    1.895212904558   -1.689134531636    0.410323592406
