20
0 1 
 C   -1.799068812361   -0.396889840164   -2.277785978949
 C   -2.194068812361   -1.165889840164   -3.510785978949
 H   -0.718068812361   -0.286889840164   -2.258785978949
 H   -2.236068812361    0.604110159836   -2.309785978949
 H   -2.146068812361   -0.909889840164   -1.378785978949
 H   -1.722068812361   -0.701889840164   -4.368785978949
 H   -1.897288812361   -2.224257840164   -3.468595978949
 H   -3.282098812361   -1.112779840164   -3.663655978949
 C    1.043931187639    0.093110159836    0.155214021051
 C    0.931931187639    1.516110159836   -0.410785978949
 C    0.752931187639    0.062110159836    1.643214021051
 O    0.280931187639    1.017110159836    2.232214021051
 N    1.081931187639   -1.049889840164    2.261214021051
 H    0.333931187639   -0.567889840164   -0.334785978949
 H    2.047931187639   -0.296889840164   -0.017785978949
 H   -0.094068812361    1.874110159836   -0.290785978949
 H    0.926931187639   -1.107889840164    3.255214021051
 H    1.497931187639   -1.815889840164    1.754214021051
 H    1.232491187639    1.497986159836   -1.468775978949
 H    1.619531187639    2.200825159836    0.107264021051
