18
0 1 
 C   -0.028692442584    0.711218000461    1.391261971937
 C    1.397307557416    0.839218000461    1.881261971937
 C    1.393307557416   -0.840781999539    0.212261971937
 C   -2.008692442584    0.514218000461   -0.906738028063
 C   -0.660692442584   -0.212781999539   -0.899738028063
 O   -0.305692442584   -0.856781999539   -1.885738028063
 N    0.111307557416   -0.137781999539    0.198261971937
 H   -0.619692442584    0.191218000461    2.144261971937
 H   -0.438692442584    1.696218000461    1.184261971937
 H    1.426307557416    1.062218000461    2.948261971937
 H    1.936307557416    1.601218000461    1.330261971937
 H    2.050307557416   -0.434781999539   -0.557738028063
 H   -2.629692442584    0.036218000461   -1.665738028063
 H    1.806397557416   -0.160121999539    1.671601971937
 H    1.800147557416   -0.615721999539    1.209171971937
 H    1.277327557416   -1.924241999539    0.061701971937
 H   -2.533682442584    0.453878000461    0.058011971937
 H   -1.871852442584    1.567168000461   -1.194098028063
