38
0 1 
 C    0.774260946626   -1.777649426356   -1.347421194938
 C    2.245260946626   -2.171649426356   -1.259421194938
 C   -0.056739053374   -2.057649426356   -0.112421194938
 C   -0.894739053374   -3.168649426356   -0.063421194938
 C   -0.077739053374   -1.156649426356    0.967578805062
 C   -1.710739053374   -3.402649426356    1.036578805062
 C   -0.898739053374   -1.394649426356    2.094578805062
 C   -1.717739053374   -2.516649426356    2.108578805062
 O   -2.549739053374   -2.753649426356    3.160578805062
 H    0.710260946626   -0.711649426356   -1.546421194938
 H    0.327260946626   -2.276649426356   -2.202421194938
 H    2.656260946626   -1.800649426356   -0.319421194938
 H   -0.898739053374   -3.873649426356   -0.881421194938
 H    0.548260946626   -0.275649426356    0.939578805062
 H   -2.346739053374   -4.274649426356    1.045578805062
 H   -0.910739053374   -0.704649426356    2.925578805062
 H   -3.072739053374   -3.550649426356    3.040578805062
 H    2.786136946626   -1.750216426356   -2.119561194938
 H    2.371742946626   -3.262284426356   -1.326641194938
 C    0.075260946626    1.579350573644   -3.569421194938
 C    0.712260946626    1.980350573644   -1.077421194938
 C   -0.215739053374    2.017350573644   -2.164421194938
 C    0.032260946626    2.455350573644    0.076578805062
 C   -1.399739053374    2.474350573644   -1.646421194938
 C    2.061260946626    1.610350573644   -0.964421194938
 C    0.649260946626    2.539350573644    1.315578805062
 C    2.684260946626    1.696350573644    0.274578805062
 C    1.983260946626    2.167350573644    1.401578805062
 N   -1.249739053374    2.740350573644   -0.309421194938
 H    2.604260946626    1.263350573644   -1.830421194938
 H   -0.148739053374    0.516350573644   -3.664421194938
 H    1.144260946626    1.708350573644   -3.742421194938
 H   -2.330739053374    2.566350573644   -2.193421194938
 H   -2.007739053374    2.990350573644    0.315578805062
 H    0.108260946626    2.890350573644    2.183578805062
 H    3.721260946626    1.402350573644    0.375578805062
 H    2.491260946626    2.224350573644    2.357578805062
 H   -0.472214053374    2.139826573644   -4.341521194938
