8
0 1 
 C    0.193800163892   -0.122558943279    0.748806431930
 C   -0.198199836108    0.126441056721   -0.743193568070
 H   -0.680199836108    0.002441056721    1.388806431930
 H    0.567800163892   -1.140558943279    0.856806431930
 H    0.978800163892    0.564441056721    1.066806431930
 H    0.712800163892    0.047441056721   -1.331193568070
 H   -0.641246336108    1.118571056721   -0.914603568070
 H   -0.885568176108   -0.638558943279   -1.133453568070
