11
0 1 
 C   -0.586637771531    0.092323056775   -0.006652928300
 C    0.135362228469   -1.072676943225   -0.684652928300
 C    0.410362228469    0.988323056775    0.687347071700
 H   -1.141637771531    0.664323056775   -0.749652928300
 H   -1.290637771531   -0.302676943225    0.727347071700
 H    0.810362228469   -1.543676943225    0.036347071700
 H    1.013362228469    0.406323056775    1.386347071700
 H    1.074362228469    1.438323056775   -0.051652928300
 H    0.720632228469   -0.724963943225   -1.548692928300
 H   -0.603267771531   -1.829201943225   -0.988122928300
 H   -0.096027771531    1.796663056775    1.235217071700
