16
-1 1 
 C   -1.480140601869   -1.679843966239    0.307136143148
 C   -1.298140601869   -2.934843966239   -0.518863856852
 O   -0.363140601869   -1.454843966239    1.147136143148
 H   -1.647140601869   -0.818843966239   -0.341863856852
 H   -2.349140601869   -1.821843966239    0.944136143148
 H   -0.523140601869   -2.762843966239   -1.266863856852
 H    0.221859398131   -0.797843966239    0.688136143148
 H   -2.253130601869   -3.168268966239   -1.012323856852
 H   -0.988750601869   -3.738101966239    0.166016143148
 C   -0.192140601869    1.964156033761   -1.211863856852
 C    0.829859398131    1.539156033761   -0.181863856852
 O    1.106859398131    0.324156033761   -0.113863856852
 O    1.418859398131    2.401156033761    0.504136143148
 H   -0.646140601869    1.089156033761   -1.682863856852
 H    0.349859398131    2.506156033761   -1.987863856852
 H   -0.998650601869    2.582146033761   -0.790413856852
