11
0 1 
 C   -0.528759911070    0.208697072366   -0.127782470715
 C    0.005240088930   -1.133302927634   -0.632782470715
 C    0.482240088930    0.928697072366    0.758217529285
 H   -0.731759911070    0.846697072366   -0.981782470715
 H   -1.467759911070    0.086697072366    0.393217529285
 H    0.073240088930   -1.835302927634    0.199217529285
 H    1.014240088930   -0.976302927634   -1.018782470715
 H    1.467240088930    0.890697072366    0.288217529285
 H    0.198240088930    1.980697072366    0.815217529285
 H   -0.606349911070   -1.557042927634   -1.442972470715
 H    0.544420088930    0.515147072366    1.775617529285
