19
-1 1 
 C    1.940733344187    0.153369878775   -1.308119219424
 C    2.967733344187    0.164369878775   -2.452119219424
 O    1.992733344187   -1.058630121225   -0.573119219424
 H    2.125733344187    0.992369878775   -0.638119219424
 H    0.939733344187    0.258369878775   -1.726119219424
 H    3.964733344187    0.192369878775   -2.008119219424
 H    1.210733344187   -1.086630121225    0.026880780576
 H    2.792223344187    1.056979878775   -3.070542219424
 H    2.851923344187   -0.761410121225   -3.034803219424
 C   -1.506266655813    0.646369878775   -0.066119219424
 C   -2.907266655813    1.332369878775    0.073880780576
 C   -1.045266655813   -0.167630121225    1.149880780576
 O   -1.464266655813    0.152369878775    2.277880780576
 O   -0.235266655813   -1.110630121225    0.964880780576
 H   -1.514266655813    0.010369878775   -0.951119219424
 H   -0.769266655813    1.433369878775   -0.239119219424
 H   -2.978266655813    2.083369878775   -0.712119219424
 H   -2.979266655813    1.851369878775    1.029880780576
 H   -3.744586655813    0.631139878775   -0.057196219424
