8
0 1 
 C    0.477852490396    0.480776248298    0.373205397724
 C   -0.471147509604   -0.486223751702   -0.374794602276
 H    1.374852490396    0.653776248298   -0.213794602276
 H   -0.027147509604    1.435776248298    0.526205397724
 H    0.750852490396    0.066776248298    1.343205397724
 H   -0.722147509604   -0.066223751702   -1.349794602276
 H   -1.381147509604   -0.521223751702    0.219205397724
 H   -0.075097509604   -1.504018751702   -0.506104602276
