24
0 1 
 C   -2.725905470425    0.472727481767   -1.451386025406
 C   -1.100905470425    0.397727481767    0.482613974594
 C   -1.598905470425   -0.181272518233   -0.687386025406
 C   -0.050905470425   -0.201272518233    1.185613974594
 C    0.510094529575   -1.390272518233    0.714613974594
 C   -1.030905470425   -1.373272518233   -1.144386025406
 C    0.020094529575   -1.977272518233   -0.451386025406
 O    1.539094529575   -1.980272518233    1.390613974594
 H   -1.533905470425    1.318727481767    0.850613974594
 H    0.322094529575    0.252727481767    2.092613974594
 H   -3.419905470425    0.912727481767   -0.735386025406
 H   -3.269905470425   -0.313272518233   -1.952386025406
 H   -1.413905470425   -1.842272518233   -2.041386025406
 H    1.748094529575   -1.501272518233    2.199613974594
 H    0.456094529575   -2.898272518233   -0.811386025406
 H   -2.402495470425    1.251497481767   -2.157726025406
 C    2.054094529575    2.130727481767   -0.317386025406
 C    1.720094529575    3.563727481767    0.092613974594
 H    2.312094529575    1.531727481767    0.557613974594
 H    1.198094529575    1.680727481767   -0.820386025406
 H    2.904094529575    2.139727481767   -0.998386025406
 H    1.429094529575    4.118727481767   -0.797386025406
 H    2.610604529575    4.039517481767    0.529193974594
 H    0.865824529575    3.573087481767    0.785533974594
