27
0 1 
 C    0.969039478041    0.380216585223    2.418637963747
 C    1.481039478041   -0.627783414777    3.436637963747
 C    3.455039478041    1.450216585223    1.727637963747
 S    2.051039478041    0.599216585223    0.985637963747
 H   -0.009960521959    0.056216585223    2.065637963747
 H    0.840039478041    1.344216585223    2.912637963747
 H    0.765039478041   -0.691783414777    4.257637963747
 H    2.425039478041   -0.262783414777    3.839637963747
 H    3.910039478041    0.824216585223    2.495637963747
 H    4.198039478041    1.655216585223    0.955637963747
 H    3.127039478041    2.393216585223    2.162637963747
 H    1.645565478041   -1.632253414777    3.019549963747
 C   -3.914960521959    0.243216585223   -0.858362036253
 C   -0.360960521959   -1.110783414777   -0.798362036253
 C   -1.644960521959   -0.737783414777   -0.387362036253
 C    0.038039478041   -0.897783414777   -2.114362036253
 C   -2.530960521959   -0.151783414777   -1.289362036253
 C   -0.848960521959   -0.323783414777   -3.017362036253
 C   -2.122960521959    0.053216585223   -2.603362036253
 H    0.335039478041   -1.545783414777   -0.099362036253
 H   -1.942960521959   -0.885783414777    0.636637963747
 H    1.030039478041   -1.186783414777   -2.436362036253
 H   -0.559960521959   -0.191783414777   -4.047362036253
 H   -4.229960521959    1.114216585223   -1.435362036253
 H   -3.882960521959    0.552216585223    0.187637963747
 H   -2.797960521959    0.517216585223   -3.307362036253
 H   -4.662320521959   -0.555733414777   -0.973009136253
