13
1 1 
 C    0.682091369030   -1.876101993050   -0.054266114541
 C   -0.175908630970    0.452898006950    0.012733885459
 N   -0.933908630970    1.344898006950    0.609733885459
 N   -0.070908630970   -0.763101993050    0.533733885459
 N    0.495091369030    0.797898006950   -1.074266114541
 H   -1.495908630970    1.055898006950    1.416733885459
 H   -1.012908630970    2.281898006950    0.253733885459
 H   -0.579908630970   -0.939101993050    1.402733885459
 H    1.109091369030    0.141898006950   -1.524266114541
 H    0.424091369030    1.735898006950   -1.439266114541
 H    0.889091369030   -2.610101993050    0.726733885459
 H    1.633091369030   -1.529101993050   -0.460266114541
 H    0.088639369030   -2.361391993050   -0.843132114541
