36
0 1 
 C   -0.269060629238    0.878545336764    2.105548763149
 C    0.062939370762    1.926545336764    3.176548763149
 C   -1.733060629238    0.499545336764    1.979548763149
 C   -2.534060629238    0.242545336764    3.108548763149
 C   -2.312060629238    0.344545336764    0.695548763149
 C   -3.934060629238   -0.097454663236    2.968548763149
 C   -3.675060629238   -0.031454663236    0.550548763149
 C   -4.502060629238   -0.219454663236    1.702548763149
 H    0.075939370762    1.225545336764    1.132548763149
 H    0.296939370762    0.001545336764    2.349548763149
 H   -0.112060629238    1.493545336764    4.163548763149
 H   -2.112060629238    0.322545336764    4.100548763149
 H   -1.712060629238    0.502545336764   -0.191451236851
 H   -4.541060629238   -0.268454663236    3.848548763149
 H   -4.099060629238   -0.147454663236   -0.439451236851
 H   -5.546060629238   -0.482454663236    1.591548763149
 H   -0.541910629238    2.838645836764    3.065968763149
 H    1.136679370762    2.150480336764    3.093288763149
 C    1.912939370762   -0.153454663236   -0.774451236851
 C    2.971939370762   -0.366454663236    0.300548763149
 C    4.056939370762   -0.444454663236   -1.850451236851
 C    2.690939370762   -0.879454663236   -4.406451236851
 C    1.912939370762   -0.616454663236   -3.163451236851
 O    0.672939370762   -0.568454663236   -3.237451236851
 N    2.596939370762   -0.451454663236   -2.022451236851
 H    1.067939370762   -0.824454663236   -0.607451236851
 H    1.580939370762    0.884545336764   -0.777451236851
 H    3.056939370762   -1.427454663236    0.543548763149
 H    2.773939370762    0.225545336764    1.193548763149
 H    4.516939370762    0.235545336764   -2.566451236851
 H    3.731939370762   -1.109454663236   -4.202451236851
 H    3.871529370762   -0.024567663236   -0.232226236851
 H    4.185729370762   -0.040731663236   -0.835354236851
 H    4.511399370762   -1.441810663236   -1.943953236851
 H    2.191069370762   -1.732710663236   -4.888201236851
 H    2.614449370762    0.017357336764   -5.038809236851
