24
0 1 
 C   -2.588717210562   -1.639484934432    1.872369133362
 C    0.050282789438   -0.773484934432   -0.719630866638
 C    0.948282789438   -1.804484934432   -0.579630866638
 C   -1.104717210562   -0.732484934432    0.040369133362
 C   -1.372717210562   -1.720484934432    0.980369133362
 C    0.724282789438   -2.779484934432    0.382369133362
 C   -0.431717210562   -2.741484934432    1.153369133362
 H    0.244282789438   -0.008484934432   -1.453630866638
 H    1.844282789438   -1.829484934432   -1.185630866638
 H   -1.783717210562    0.099515065568   -0.075630866638
 H    1.456282789438   -3.542484934432    0.539369133362
 H   -2.942717210562   -2.651484934432    2.067369133362
 H   -3.387717210562   -1.098484934432    1.361369133362
 H   -0.593717210562   -3.505484934432    1.902369133362
 H   -2.369347210562   -1.158574934432    2.837049133362
 C    1.108282789438    2.781515065568    0.709369133362
 C    0.937282789438    2.678515065568   -0.804630866638
 O    1.714282789438    2.018515065568   -1.489630866638
 N   -0.108717210562    3.322515065568   -1.339630866638
 H    0.288282789438    2.247515065568    1.182369133362
 H    1.008282789438    3.835515065568    0.958369133362
 H   -0.207717210562    3.294515065568   -2.341630866638
 H   -0.727717210562    3.873515065568   -0.749630866638
 H    2.067202789438    2.393625065568    1.083559133362
