15
0 1 
 C    0.149809649979    0.996940243622    2.242866725733
 C   -0.110190350021   -0.752059756378   -1.699133274267
 C   -0.769190350021   -1.350059756378   -0.627133274267
 C    0.631809649979    0.408940243622   -1.494133274267
 C   -0.686190350021   -0.784059756378    0.648866725733
 C    0.714809649979    0.967940243622   -0.217133274267
 C    0.055809649979    0.379940243622    0.862866725733
 H   -0.182190350021   -1.180059756378   -2.689133274267
 H   -1.346190350021   -2.251059756378   -0.783133274267
 H    1.123809649979    0.886940243622   -2.326133274267
 H   -1.211190350021   -1.248059756378    1.471866725733
 H    1.293809649979    1.866940243622   -0.063133274267
 H   -0.857190350021    1.170940243622    2.615866725733
 H    0.657809649979    1.959940243622    2.166866725733
 H    0.680079649979    0.371100243622    2.975766725733
