8
0 1 
 C    0.716444651426   -0.060611669856   -0.166963807597
 C   -0.711555348574    0.070388330144    0.173036192403
 H    1.229444651426   -0.471611669856    0.692036192403
 H    0.829444651426   -0.759611669856   -0.995963807597
 H    1.135444651426    0.905388330144   -0.452963807597
 H   -1.010555348574   -0.830611669856    0.712036192403
 H   -1.240555348574    0.081388330144   -0.780963807597
 H   -1.001439348574    0.958649330144    0.753516192403
