32
1 1 
 C   -2.795744829461   -1.347383943845   -0.673355253122
 C   -1.820744829461   -1.519383943845    1.670644746878
 N   -2.473744829461   -0.862383943845    0.704644746878
 N   -1.321744829461   -2.732383943845    1.484644746878
 N   -1.690744829461   -0.958383943845    2.868644746878
 H   -2.785744829461    0.085616056155    0.942644746878
 H   -1.019744829461   -2.932383943845    0.541644746878
 H   -0.855744829461   -3.188383943845    2.261644746878
 H   -1.939744829461    0.017616056155    2.974644746878
 H   -1.198744829461   -1.427383943845    3.615644746878
 H   -3.792744829461   -0.985383943845   -0.939355253122
 H   -2.828744829461   -2.426383943845   -0.717355253122
 H   -2.085814829461   -0.957613943845   -1.417725253122
 C    1.675255170539   -0.037383943845   -3.449355253122
 C    1.151255170539    0.487616056155    0.209644746878
 C    1.138255170539    0.989616056155   -1.127355253122
 C    1.554255170539   -0.068383943845   -1.976355253122
 C    1.813255170539   -1.134383943845   -1.178355253122
 C    0.800255170539    1.266616056155    1.304644746878
 C    0.415255170539    2.588616056155    1.061644746878
 C    0.751255170539    2.313616056155   -1.351355253122
 C    0.382255170539    3.107616056155   -0.256355253122
 N    1.566255170539   -0.812383943845    0.129644746878
 H    1.725255170539   -1.439383943845    0.911644746878
 H    0.831255170539    0.866616056155    2.308644746878
 H    2.149255170539   -2.104383943845   -1.533355253122
 H    0.133255170539    3.224616056155    1.891644746878
 H    0.719255170539    2.693616056155   -2.353355253122
 H    0.889255170539    0.603616056155   -3.846355253122
 H    1.490255170539   -1.044383943845   -3.824355253122
 H    0.073255170539    4.133616056155   -0.414355253122
 H    2.655765170539    0.288976056155   -3.826309253122
