15
0 1 
 C   -0.124698028872    2.340979064991    0.695975292975
 C   -0.651698028872   -0.868020935009   -1.269024707025
 C   -0.727698028872    0.464979064991   -0.869024707025
 C    0.100301971128   -1.773020935009   -0.529024707025
 C   -0.055698028872    0.899979064991    0.270975292975
 C    0.776301971128   -1.346020935009    0.605975292975
 C    0.699301971128   -0.013020935009    1.000975292975
 H   -1.176698028872   -1.192020935009   -2.155024707025
 H   -1.315698028872    1.154979064991   -1.450024707025
 H    0.158301971128   -2.809020935009   -0.828024707025
 H    1.365301971128   -2.049020935009    1.178975292975
 H    0.521301971128    2.478979064991    1.564975292975
 H   -1.146698028872    2.567979064991    1.000975292975
 H    1.221301971128    0.305979064991    1.889975292975
 H    0.181021971128    3.044499064991   -0.092432707025
