19
0 1 
 C   -1.913472454977    0.550420098628    1.546643133577
 C   -1.456472454977    1.559420098628    2.597643133577
 C   -0.834472454977    0.154420098628    0.577643133577
 C   -0.563472454977    0.946420098628   -0.542356866423
 C   -0.080472454977   -1.003579901372    0.793643133577
 C    0.431527545023    0.582420098628   -1.448356866423
 C    0.919527545023   -1.372579901372   -0.106356866423
 C    1.177527545023   -0.573579901372   -1.219356866423
 O    2.137527545023   -0.937579901372   -2.110356866423
 H   -2.287472454977   -0.341579901372    2.055643133577
 H   -2.734472454977    0.977420098628    0.970643133577
 H   -1.063472454977    2.432420098628    2.075643133577
 H   -1.124472454977    1.856420098628   -0.705356866423
 H   -0.268472454977   -1.602579901372    1.670643133577
 H    0.635527545023    1.199420098628   -2.310356866423
 H    1.502527545023   -2.266579901372    0.059643133577
 H    2.029527545023   -0.419579901372   -2.939356866423
 H   -0.682032454977    1.100800098628    3.230033133577
 H   -2.310082454977    1.902160098628    3.200873133577
