11
1 1 
 C   -0.388075850064   -0.313284198316   -0.205863463484
 C    0.215924149936   -0.705284198316    1.125136536516
 N    0.144924149936    0.889715801684   -0.828863463484
 H   -0.244075850064   -1.157284198316   -0.890863463484
 H   -1.471075850064   -0.209284198316   -0.061863463484
 H   -0.000075850064   -1.766284198316    1.264136536516
 H   -0.335075850064   -0.176284198316    1.907136536516
 H    1.114924149936    0.804715801684   -1.109863463484
 H   -0.382075850064    1.132715801684   -1.662863463484
 H    0.067924149936    1.687715801684   -0.203863463484
 H    1.285684849936   -0.550114198316    1.328936536516
