10
-1 1 
 C    0.178320052304   -0.006828113026   -1.067879350936
 C    1.659320052304   -0.377828113026   -1.013879350936
 C   -0.445679947696    0.110171886974    0.315120649064
 O    0.229320052304   -0.191828113026    1.325120649064
 O   -1.634679947696    0.485171886974    0.389120649064
 H    0.040320052304    0.919171886974   -1.629879350936
 H   -0.352679947696   -0.801828113026   -1.587879350936
 H    1.795320052304   -1.122828113026   -0.228879350936
 H    2.280140052304    0.500351886974   -0.782859350936
 H    1.967150052304   -0.882208113026   -1.941699350936
