19
0 1 
 C    0.898008108838   -0.660040866543   -2.256015168886
 C    0.155008108838   -1.890040866543   -2.792015168886
 C    0.431008108838   -0.173040866543   -0.927015168886
 C   -0.901991891162    0.179959133457   -0.708015168886
 C    1.332008108838   -0.072040866543    0.138984831114
 C   -1.328991891162    0.600959133457    0.569984831114
 C    0.922008108838    0.353959133457    1.400984831114
 C   -0.410991891162    0.664959133457    1.614984831114
 O   -0.876991891162    1.047959133457    2.833984831114
 H    1.946008108838   -0.920040866543   -2.168015168886
 H    0.825008108838    0.165959133457   -2.960015168886
 H   -0.823991891162   -1.551040866543   -3.127015168886
 H   -1.618991891162    0.123959133457   -1.517015168886
 H    2.378008108838   -0.298040866543   -0.022015168886
 H   -2.366991891162    0.859959133457    0.730984831114
 H    1.627008108838    0.428959133457    2.216984831114
 H   -1.794991891162    1.337959133457    2.796984831114
 H    0.035128108838   -2.659067866543   -2.014695168886
 H    0.661648108838   -2.269289866543   -3.691735168886
