20
0 1 
 C   -3.318037619665   -1.365963588976   -1.139375189169
 C   -1.997037619665   -0.875963588976   -0.550375189169
 O   -1.545037619665    0.185036411024   -1.037375189169
 O   -1.446037619665   -1.542963588976    0.370624810831
 H   -3.437037619665   -0.986963588976   -2.153375189169
 H   -4.136037619665   -0.967963588976   -0.539375189169
 H   -3.402667619665   -2.462503588976   -1.160175189169
 C    1.625962380335    2.115036411024   -0.927375189169
 C    1.674962380335    0.353036411024    0.792624810831
 N    1.060962380335    0.984036411024   -0.200375189169
 N    2.902962380335    0.725036411024    1.196624810831
 N    0.989962380335   -0.583963588976    1.447624810831
 H    0.120962380335    0.665036411024   -0.462375189169
 H    2.233962380335    1.763036411024   -1.763375189169
 H    2.231962380335    2.749036411024   -0.276375189169
 H    3.408962380335    1.455036411024    0.723624810831
 H    3.349962380335    0.258036411024    1.974624810831
 H    0.054962380335   -0.846963588976    1.114624810831
 H    1.410962380335   -1.112963588976    2.201624810831
 H    0.785642380335    2.713126411024   -1.309665189169
