23
0 1 
 C   -0.611085048211    2.976866329782   -0.957435698948
 C   -1.864085048211    3.805866329782   -1.233435698948
 H   -0.509085048211    2.790866329782    0.112564301052
 H   -0.673085048211    2.022866329782   -1.481435698948
 H    0.270914951789    3.511866329782   -1.311435698948
 H   -1.912085048211    3.991866329782   -2.308435698948
 H   -1.799129148211    4.776428329782   -0.719830698948
 H   -2.775723048211    3.255579329782   -0.957573698948
 C    2.577914951789   -2.206133670218    0.564564301052
 C   -1.243085048211   -0.279133670218    0.203564301052
 C   -0.376085048211    0.084866329782    1.223564301052
 C   -0.873085048211   -1.264133670218   -0.700435698948
 C    0.859914951789   -0.535133670218    1.339564301052
 C    0.362914951789   -1.885133670218   -0.580435698948
 C    1.237914951789   -1.526133670218    0.440564301052
 H   -2.209085048211    0.198866329782    0.118564301052
 H   -0.666085048211    0.851866329782    1.929564301052
 H   -1.541085048211   -1.547133670218   -1.499435698948
 H    1.530914951789   -0.231133670218    2.131564301052
 H    0.647914951789   -2.650133670218   -1.290435698948
 H    3.327914951789   -1.487133670218    0.892564301052
 H    2.885914951789   -2.546133670218   -0.425435698948
 H    2.573609951789   -3.077265670218    1.236211301052
