27
0 1 
 C   -1.827069381011   -1.576872842405    1.118870887057
 C   -2.517069381011   -0.468872842405    0.418870887057
 O   -2.681069381011   -2.298872842405    1.949870887057
 H   -1.866069381011   -1.898872842405    0.097870887057
 H   -0.863069381011   -1.279872842405    1.531870887057
 H   -1.876069381011   -0.081872842405   -0.372129112943
 H   -3.108069381011   -1.761872842405    2.653870887057
 H   -2.675740381011    0.347367157595    1.138992887057
 H   -3.444537381011   -0.817207842405   -0.059110012943
 C    1.754930618989   -1.207872842405   -0.042129112943
 C    2.942930618989   -1.547872842405   -0.953129112943
 C    1.148930618989    0.134127157595   -0.304129112943
 C    0.396930618989    0.352127157595   -1.436129112943
 C    1.231930618989    1.157127157595    0.630870887057
 C   -0.187069381011    1.585127157595   -1.649129112943
 C    0.650930618989    2.402127157595    0.416870887057
 C   -0.052069381011    2.620127157595   -0.747129112943
 H    1.007930618989   -1.946872842405   -0.230129112943
 H    2.063930618989   -1.275872842405    1.001870887057
 H    3.640930618989   -0.712872842405   -0.890129112943
 H    0.236930618989   -0.438872842405   -2.152129112943
 H    1.750930618989    0.981127157595    1.556870887057
 H   -0.797069381011    1.706127157595   -2.525129112943
 H    0.744930618989    3.183127157595    1.157870887057
 H   -0.533069381011    3.570127157595   -0.932129112943
 H    2.623840618989   -1.699571842405   -1.994843112943
 H    3.455246618989   -2.459218842405   -0.611104112943
