20
0 1 
 C    0.293706597953   -2.013612895253   -1.470860206733
 C    1.125706597953    0.249387104747   -1.817860206733
 N    0.195706597953    0.669387104747   -0.962860206733
 N    1.203706597953   -1.044612895253   -2.084860206733
 N    1.914706597953    1.127387104747   -2.432860206733
 H   -0.366293402047    0.000387104747   -0.441860206733
 H    0.077706597953    1.654387104747   -0.791860206733
 H    1.925706597953   -1.372612895253   -2.730860206733
 H    2.609706597953    0.764387104747   -3.095860206733
 H    1.803706597953    2.117387104747   -2.295860206733
 H   -0.745293402047   -1.773612895253   -1.710860206733
 H    0.433706597953   -2.026612895253   -0.387860206733
 H    0.536316597953   -3.007512895253   -1.874966206733
 C    0.049706597953    0.799387104747    2.672139793267
 C   -1.240293402047    0.196387104747    2.179139793267
 O   -1.229293402047   -0.692612895253    1.279139793267
 O   -2.309293402047    0.656387104747    2.660139793267
 H   -0.072293402047    1.202387104747    3.678139793267
 H    0.298706597953    1.630387104747    2.010139793267
 H    0.886126597953    0.084987104747    2.666464793267
