18
0 1 
 C    1.057056936430    1.028782975501    0.563946497293
 C    2.304056936430    0.188782975501    0.850946497293
 C    0.424056936430   -1.278217024499    0.962946497293
 C   -1.295943063570    1.248782975501   -1.352053502707
 C   -0.972943063570   -0.027217024499   -0.574053502707
 O   -1.669943063570   -1.039217024499   -0.740053502707
 N    0.094056936430   -0.033217024499    0.258946497293
 H    0.750056936430    1.578782975501    1.454946497293
 H    1.246056936430    1.701782975501   -0.259053502707
 H    3.042056936430    0.722782975501    1.435946497293
 H    2.745056936430   -0.150217024499   -0.085053502707
 H    0.525056936430   -2.094217024499    0.244946497293
 H   -0.934943063570    2.102782975501   -0.789053502707
 H    1.927716936430   -0.670907024499    1.424796497293
 H    1.390186936430   -1.085847024499    1.452426497293
 H   -0.343433063570   -1.534527024499    1.708116497293
 H   -0.823333063570    1.191862975501   -2.343713502707
 H   -2.382273063570    1.369562975501   -1.475713502707
