19
0 1 
 C   -2.534560203417   -1.483025083678    0.308512955993
 C   -1.068560203417   -1.179025083678    0.378512955993
 C   -0.111560203417   -1.894025083678    1.009512955993
 C   -0.436560203417   -0.004025083678   -0.126487044007
 C    0.926439796583   -0.068025083678    0.249512955993
 C   -0.888560203417    1.112974916322   -0.856487044007
 C    1.813439796583    0.926974916322   -0.079487044007
 C    0.018439796583    2.122974916322   -1.184487044007
 C    1.356439796583    2.021974916322   -0.796487044007
 N    1.107439796583   -1.239025083678    0.943512955993
 H   -2.668560203417   -2.527025083678    0.581512955993
 H   -2.843560203417   -1.348025083678   -0.734487044007
 H   -0.386560203417   -2.833025083678    1.472512955993
 H    1.987439796583   -1.554025083678    1.335512955993
 H   -1.919560203417    1.215974916322   -1.171487044007
 H    2.836439796583    0.810974916322    0.235512955993
 H   -0.336560203417    2.979974916322   -1.741487044007
 H    2.045439796583    2.806974916322   -1.058487044007
 H   -3.087360203417   -0.872595083678    1.037752955993
