23
0 1 
 C   -2.936402052160    0.276133745210    2.931536963379
 C   -4.106402052160    0.997133745210    2.293536963379
 H   -2.989402052160    0.345133745210    4.016536963379
 H   -2.974402052160   -0.782866254790    2.669536963379
 H   -1.989402052160    0.695133745210    2.585536963379
 H   -5.021402052160    0.663133745210    2.778536963379
 H   -3.959122052160    2.075053745210    2.455983963379
 H   -4.171782052160    0.786623745210    1.215848963379
 C    3.218597947840    0.057133745210   -2.146463036621
 C   -0.402402052160   -0.450866254790    0.121536963379
 C    0.780597947840   -0.279866254790    0.776536963379
 C   -0.443402052160   -0.423866254790   -1.262463036621
 C    1.955597947840   -0.077866254790    0.042536963379
 C    0.728597947840   -0.227866254790   -1.991463036621
 C    1.941597947840   -0.062866254790   -1.348463036621
 H   -1.311402052160   -0.613866254790    0.681536963379
 H    0.805597947840   -0.270866254790    1.856536963379
 H   -1.381402052160   -0.567866254790   -1.779463036621
 H    2.882597947840    0.086133745210    0.574536963379
 H    0.675597947840   -0.254866254790   -3.069463036621
 H    3.198597947840   -0.704866254790   -2.927463036621
 H    4.056597947840   -0.194866254790   -1.501463036621
 H    3.411357947840    1.034443745210   -2.613066036621
