20
0 1 
 C   -2.938619644853   -0.194598671031    0.773625452226
 C   -4.235619644853   -0.895598671031    1.178625452226
 H   -3.125619644853    0.867401328969    0.623625452226
 H   -2.196619644853   -0.319598671031    1.561625452226
 H   -2.562619644853   -0.630598671031   -0.151374547774
 H   -4.604619644853   -0.461598671031    2.107625452226
 H   -4.030619644853   -1.953598671031    1.335625452226
 H   -5.034427644853   -0.810118671031    0.427225452226
 C    0.471380355147    0.143401328969   -0.022374547774
 C    0.561380355147   -1.262598671031    0.604625452226
 C    1.777380355147    0.596401328969   -0.642374547774
 O    2.858380355147    0.297401328969   -0.131374547774
 N    1.673380355147    1.328401328969   -1.743374547774
 H   -0.291619644853    0.127401328969   -0.801374547774
 H    0.185380355147    0.864401328969    0.743625452226
 H    1.359380355147   -1.825598671031    0.121625452226
 H   -0.382619644853   -1.785598671031    0.445625452226
 H    2.512380355147    1.657401328969   -2.204374547774
 H    0.760380355147    1.550401328969   -2.117374547774
 H    0.758710355147   -1.251908671031    1.686725452226
