16
0 1 
 C    0.449718822545   -1.453301600994   -0.655460032221
 C    0.881718822545   -2.708301600994    0.106539967779
 H    1.278718822545   -0.752301600994   -0.741460032221
 H    0.107718822545   -1.731301600994   -1.651460032221
 H   -0.373281177455   -0.968301600994   -0.135460032221
 H    0.060718822545   -3.417301600994    0.156539967779
 H    1.196198822545   -2.447491600994    1.127849967779
 H    1.707368822545   -3.212381600994   -0.417100032221
 C   -0.383281177455    1.688698399006    0.862539967779
 C   -0.954281177455    2.473698399006   -0.312460032221
 H   -1.114281177455    0.971698399006    1.240539967779
 H    0.511718822545    1.162698399006    0.535539967779
 H   -0.104281177455    2.374698399006    1.663539967779
 H   -0.171281177455    3.129698399006   -0.696460032221
 H   -1.795651177455    3.093968399006    0.030119967779
 H   -1.230741177455    1.786868399006   -1.126000032221
