8
0 1 
 C   -0.739375208667   -0.016215770557    0.187900454991
 C    0.736624791333    0.023784229443   -0.181099545009
 H   -0.939375208667    0.669784229443    1.008900454991
 H   -1.330375208667    0.284784229443   -0.676099545009
 H   -1.028375208667   -1.027215770557    0.476900454991
 H    1.046624791333    1.043784229443   -0.391099545009
 H    1.398714791333   -0.443615990557    0.562660454991
 H    0.885534791333   -0.617637270557   -1.062239545009
