30
0 1 
 C   -1.789928296465   -0.987124460457   -2.424555772460
 C    0.568071703535   -0.427124460457   -1.562555772460
 C   -0.785928296465   -0.246124460457   -1.580555772460
 C    0.179071703535    1.181875539543   -0.053555772460
 C   -1.061928296465    0.787875539543   -0.618555772460
 C    0.273071703535    2.162875539543    0.920444227540
 C   -2.230928296465    1.416875539543   -0.173555772460
 C   -0.895928296465    2.773875539543    1.334444227540
 C   -2.134928296465    2.406875539543    0.799444227540
 N    1.147071703535    0.424875539543   -0.654555772460
 H    1.105071703535   -1.139124460457   -2.180555772460
 H    2.149071703535    0.457875539543   -0.469555772460
 H   -2.548928296465   -1.417124460457   -1.770555772460
 H   -1.267928296465   -1.817124460457   -2.901555772460
 H    1.229071703535    2.442875539543    1.338444227540
 H   -3.183928296465    1.150875539543   -0.600555772460
 H   -0.851928296465    3.547875539543    2.090444227540
 H   -3.030928296465    2.904875539543    1.146444227540
 H   -2.287030296465   -0.380273460457   -3.195672772460
 C    1.835071703535   -2.304124460457    1.571444227540
 C    3.192071703535   -2.394124460457    0.887444227540
 C    0.910071703535   -3.494124460457    1.376444227540
 H    1.987071703535   -2.155124460457    2.642444227540
 H    1.330071703535   -1.416124460457    1.194444227540
 H    3.045071703535   -2.658124460457   -0.155555772460
 H    1.284071703535   -4.360124460457    1.908444227540
 H    3.820801703535   -3.156728460457    1.370276527540
 H    3.653341703535   -1.395543460457    0.895409227540
 H   -0.064108296465   -3.207559460457    1.799364827540
 H    0.818041703535   -3.753090460457    0.311330227540
