8
0 1 
 C   -0.283615554944    0.190760618813    0.678120235412
 C    0.294384445056   -0.190239381187   -0.679879764588
 H    0.488384445056    0.645760618813    1.300120235412
 H   -1.100615554944    0.902760618813    0.547120235412
 H   -0.669615554944   -0.698239381187    1.179120235412
 H   -0.528615554944   -0.606239381187   -1.250879764588
 H    1.060224445056   -0.968889381187   -0.548722764588
 H    0.622014445056    0.718640618813   -1.205807764588
