8
0 1 
 C   -0.627186491712    0.418140310572   -0.109379354418
 C    0.626813508288   -0.416859689428    0.106620645582
 H   -0.610186491712    0.885140310572   -1.095379354418
 H   -1.515186491712   -0.210859689428   -0.030379354418
 H   -0.676186491712    1.201140310572    0.649620645582
 H    0.604813508288   -0.851859689428    1.105620645582
 H    1.533803508288    0.200320310572    0.026282545582
 H    0.667383508288   -1.239129689428   -0.622917654418
