9
0 1 
 C    0.940910867648   -0.719804310292    0.834683503140
 C   -0.051089132352   -0.015804310292   -0.060316496860
 O   -0.798089132352   -0.651804310292   -0.806316496860
 N   -0.089089132352    1.307195689708    0.018683503140
 H    0.390910867648   -1.414804310292    1.471683503140
 H    1.428910867648    0.010195689708    1.481683503140
 H   -0.773089132352    1.815195689708   -0.518316496860
 H    0.557910867648    1.802195689708    0.614683503140
 H    1.704490867648   -1.272044310292    0.267243503140
