8
0 1 
 C    0.662343802167   -0.141730799329    0.362306263286
 C   -0.661656197833    0.147269200671   -0.362693736714
 H    0.655343802167    0.281269200671    1.365306263286
 H    0.806343802167   -1.218730799329    0.443306263286
 H    1.495343802167    0.279269200671   -0.199693736714
 H   -1.494656197833   -0.198730799329    0.245306263286
 H   -0.675656197833   -0.428730799329   -1.281693736714
 H   -0.794906197833    1.219709200671   -0.567917736714
