12
0 1 
 C   -0.593190561192   -0.906642230856    1.925888939182
 C    0.517809438808    1.179357769144   -0.820111060818
 C   -0.190190561192   -0.336642230856    0.598888939182
 C   -0.218190561192   -0.888642230856   -0.650111060818
 N    0.283809438808    0.950357769144    0.465888939182
 N    0.226809438808    0.079357769144   -1.517111060818
 H    0.886809438808    2.137357769144   -1.168111060818
 H    0.316809438808   -0.032642230856   -2.519111060818
 H   -0.512190561192   -1.872642230856   -0.994111060818
 H    0.315809438808   -0.984642230856    2.525888939182
 H   -0.993190561192   -1.901642230856    1.745888939182
 H   -1.348690561192   -0.310942230856    2.459188939182
