9
0 1 
 C   -0.703525109539    0.790234554006   -1.074407409988
 C   -0.287525109539   -1.262765445994    0.786592590012
 S    0.506474890461    0.242234554006    0.148592590012
 H   -0.332525109539    1.681234554006   -1.583407409988
 H   -0.871525109539   -0.004765445994   -1.801407409988
 H   -1.645525109539    1.026234554006   -0.576407409988
 H   -0.098525109539   -2.070765445994    0.078592590012
 H   -1.365525109539   -1.102765445994    0.812592590012
 H    0.046566890461   -1.587436445994    1.783072590012
