19
0 1 
 C   -0.986823404366    0.452685584300   -0.765142204045
 C   -1.631823404366    0.203685584300   -2.096142204045
 C   -0.277823404366    1.779685584300   -0.931142204045
 H   -0.245823404366   -0.313314415700   -0.591142204045
 H   -1.712823404366    0.466685584300    0.042857795955
 H   -1.639823404366   -0.864314415700   -2.322142204045
 H   -2.646823404366    0.598685584300   -2.074142204045
 H    0.550176595634    1.889685584300   -0.229142204045
 H   -0.993823404366    2.588685584300   -0.785142204045
 H   -1.016523404366    0.762706584300   -2.816492204045
 H    0.058396595634    1.778251584300   -1.978502204045
 C    1.495176595634   -0.442314415700    1.804857795955
 C    1.325176595634   -1.964314415700    1.946857795955
 H    0.561176595634    0.060685584300    2.055857795955
 H    2.282176595634   -0.098314415700    2.475857795955
 H    1.771176595634   -0.198314415700    0.781857795955
 H    2.301176595634   -2.395314415700    1.730857795955
 H    0.590986595634   -2.356703815700    1.227837795955
 H    1.046686595634   -2.269503415700    2.966317795955
