18
0 1 
 C    0.684880710792   -1.365412795486    0.759583015075
 C    0.958880710792   -1.188412795486    2.260583015075
 S    2.097880710792   -1.087412795486   -0.316416984925
 H    0.346880710792   -2.392412795486    0.597583015075
 H   -0.120119289208   -0.698412795486    0.462583015075
 H    1.246880710792   -0.155412795486    2.456583015075
 H    1.489880710792   -1.383412795486   -1.474416984925
 H    1.734165710792   -1.894582795486    2.592633015075
 H    0.029450710792   -1.416082795486    2.803113015075
 C   -0.897119289208    2.225587204514   -1.404416984925
 C   -1.606119289208    1.182587204514   -0.577416984925
 O   -2.048119289208    0.163587204514   -1.099416984925
 N   -1.644119289208    1.379587204514    0.724583015075
 H    0.170880710792    2.174587204514   -1.191416984925
 H   -1.264119289208    3.205587204514   -1.099416984925
 H   -2.226119289208    0.768587204514    1.286583015075
 H   -1.305119289208    2.261587204514    1.103583015075
 H   -1.072719289208    2.089567204514   -2.481757984925
