23
0 1 
 C    2.503650963377   -0.221421079364    2.319910671231
 C    3.935650963377   -0.303421079364    2.839910671231
 H    2.502650963377    0.158578920636    1.303910671231
 H    2.044650963377   -1.208421079364    2.322910671231
 H    1.909650963377    0.443578920636    2.945910671231
 H    4.502650963377   -0.998421079364    2.220910671231
 H    4.394130963377    0.695318920636    2.791840671231
 H    3.902260963377   -0.684461079364    3.871260671231
 C   -1.262349036623    1.398578920636   -2.913089328769
 C   -0.961349036623    0.473578920636    0.772910671231
 C   -0.923349036623   -0.894421079364    0.739910671231
 C   -1.057349036623    1.207578920636   -0.410089328769
 C   -1.117349036623    0.581578920636   -1.651089328769
 C   -0.951349036623   -1.534421079364   -0.493089328769
 C   -1.055349036623   -0.802421079364   -1.680089328769
 H   -0.914349036623    0.983578920636    1.721910671231
 H   -0.828349036623   -1.464421079364    1.651910671231
 H   -1.083349036623    2.285578920636   -0.353089328769
 H   -0.897349036623   -2.606421079364   -0.527089328769
 H   -0.457349036623    1.146578920636   -3.605089328769
 H   -1.148349036623    2.453578920636   -2.655089328769
 H   -1.114349036623   -1.332421079364   -2.612089328769
 H   -2.225699036623    1.256418920636   -3.424709328769
