34
0 1 
 C    4.006348015938   -1.734752346218    2.923528612778
 C    0.493348015938   -2.545752346218    1.896528612778
 C    1.722348015938   -1.880752346218    1.672528612778
 C    2.619348015938   -2.241752346218    2.726528612778
 C    1.911348015938   -3.043752346218    3.552528612778
 C   -0.429651984062   -1.598752346218   -0.071471387222
 C   -0.592651984062   -2.395752346218    1.039528612778
 C    0.776348015938   -0.958752346218   -0.322471387222
 C    1.851348015938   -1.079752346218    0.542528612778
 N    0.635348015938   -3.235752346218    3.076528612778
 H   -1.253651984062   -1.475752346218   -0.759471387222
 H   -1.538651984062   -2.871752346218    1.239528612778
 H    0.869348015938   -0.334752346218   -1.201471387222
 H    2.774348015938   -0.556752346218    0.350528612778
 H   -0.126651984062   -3.568752346218    3.644528612778
 H    2.298348015938   -3.521752346218    4.432528612778
 H    3.905348015938   -0.748752346218    3.378528612778
 H    4.462348015938   -1.581752346218    1.945528612778
 H    4.683358015938   -2.324972346218    3.558588612778
 C   -2.095651984062    4.269247653782   -4.540471387222
 C   -1.784651984062    1.336247653782   -2.120471387222
 C   -1.888651984062    2.068247653782   -3.307471387222
 C   -1.756651984062    1.976247653782   -0.887471387222
 C   -1.950651984062    3.452247653782   -3.278471387222
 C   -1.794651984062    3.344247653782   -0.854471387222
 C   -1.890651984062    4.078247653782   -2.037471387222
 H   -1.730651984062    0.264247653782   -2.154471387222
 H   -1.947651984062    1.538247653782   -4.239471387222
 H   -1.661651984062    1.406247653782    0.024528612778
 H   -1.747651984062    3.854247653782    0.094528612778
 H   -1.290651984062    4.017247653782   -5.232471387222
 H   -1.981651984062    5.324247653782   -4.282471387222
 H   -1.916651984062    5.156247653782   -1.980471387222
 H   -3.059001984062    4.127087653782   -5.052091387222
