8
1 1 
 C    0.636914227380   -0.074650853126    0.456673152079
 N   -0.563085772620    0.071349146874   -0.407326847921
 H   -0.512085772620   -0.537650853126   -1.219326847921
 H   -1.404085772620   -0.198650853126    0.091673152079
 H   -0.683085772620    1.031349146874   -0.705326847921
 H    0.563914227380   -1.006650853126    1.028673152079
 H    0.721914227380    0.745349146874    1.174673152079
 H    1.553511227380   -0.136240853126   -0.148352847921
