19
0 1 
 C    1.048554949674   -1.663176657399    1.086083222850
 C    2.296554949674   -2.166176657399    1.818083222850
 H    0.470554949674   -2.513176657399    0.724083222850
 H    0.421554949674   -1.090176657399    1.766083222850
 H    1.339554949674   -1.044176657399    0.237083222850
 H    1.967554949674   -2.747176657399    2.681083222850
 H    2.920940949674   -1.328636657399    2.162573222850
 H    2.881709949674   -2.842420657399    1.177543222850
 C   -0.703445050326    0.972823342601   -0.824916777150
 C   -0.533445050326    2.242823342601   -1.656916777150
 C   -2.159445050326    0.680823342601   -0.481916777150
 H   -0.276445050326    0.117823342601   -1.352916777150
 H   -0.147445050326    1.107823342601    0.105083222850
 H   -1.041445050326    3.075823342601   -1.164916777150
 H   -2.631445050326    1.610823342601   -0.162916777150
 H   -2.675445050326    0.305823342601   -1.366916777150
 H   -0.915885050326    2.090603342601   -2.676996777150
 H    0.529544949674    2.507663342601   -1.756506777150
 H   -2.233375050326   -0.049766657399    0.337093222850
