20
0 1 
 C    0.508382849268    0.776164693855    0.717894234128
 C    0.886382849268    1.510164693855    1.990894234128
 C    0.500382849268   -1.875835306145    1.633894234128
 S   -0.612617150732   -0.587835306145    1.020894234128
 H    0.023382849268    1.481164693855    0.045894234128
 H    1.406382849268    0.400164693855    0.230894234128
 H    1.725382849268    2.164164693855    1.752894234128
 H    1.249382849268    0.778164693855    2.711894234128
 H    1.117382849268   -1.489835306145    2.443894234128
 H   -0.085617150732   -2.710835306145    2.012894234128
 H    1.144382849268   -2.221835306145    0.825894234128
 H    0.087446549268    2.112264693855    2.448254234128
 C    0.316382849268    0.607164693855   -2.870105765872
 C   -0.976617150732    0.283164693855   -3.605105765872
 H    0.126382849268    1.329164693855   -2.079105765872
 H    0.746382849268   -0.297835306145   -2.442105765872
 H    1.035382849268    1.041164693855   -3.563105765872
 H   -0.738617150732   -0.349835306145   -4.461105765872
 H   -1.448006150732    1.209354693855   -3.965625765872
 H   -1.659001150732   -0.285725306145   -2.956485765872
