26
0 1 
 C    0.476094212815   -1.487136901413   -0.467242773038
 C   -0.472905787185   -2.668136901413   -0.241242773038
 C    0.270094212815   -0.395136901413    0.557757226962
 C   -0.721905787185    0.573863098587    0.361757226962
 C    1.007094212815   -0.366136901413    1.744757226962
 C   -0.972905787185    1.544863098587    1.339757226962
 C    0.761094212815    0.619863098587    2.697757226962
 C   -0.228905787185    1.578863098587    2.500757226962
 H    1.510094212815   -1.834136901413   -0.434242773038
 H    0.326094212815   -1.065136901413   -1.448242773038
 H   -1.423905787185   -2.255136901413    0.096757226962
 H   -1.314905787185    0.564863098587   -0.542242773038
 H    1.778094212815   -1.087136901413    1.927757226962
 H   -1.747905787185    2.282863098587    1.182757226962
 H    1.341094212815    0.636863098587    3.609757226962
 H   -0.414905787185    2.333863098587    3.249757226962
 H   -0.072935787185   -3.321349901413    0.548277226962
 H   -0.699945787185   -3.203927901413   -1.174719773038
 C    0.613094212815    0.856863098587   -3.439242773038
 C   -0.658905787185    0.090863098587   -3.825242773038
 H    0.965094212815    1.481863098587   -4.261242773038
 H    0.408094212815    1.489863098587   -2.574242773038
 H    1.408094212815    0.174863098587   -3.145242773038
 H   -0.894905787185   -0.614136901413   -3.037242773038
 H   -0.490665787185   -0.490051901413   -4.744065773038
 H   -1.533185787185    0.754883098587   -3.893884773038
