8
0 1 
 C   -0.234464609658    0.179221145072    0.704921909235
 C    0.223535390342   -0.183778854928   -0.706078090765
 H    0.271535390342   -0.446778854928    1.436921909235
 H    0.022535390342    1.216221145072    0.916921909235
 H   -1.305464609658    0.049221145072    0.803921909235
 H    1.310535390342   -0.105778854928   -0.714078090765
 H   -0.025414609658   -1.214848854928   -0.997483090765
 H   -0.143594609658    0.556232145072   -1.432438090765
