31
0 1 
 C    2.250652719013    0.116372092384    4.618612142436
 C    0.275652719013   -1.426627907616    1.736612142436
 C    0.574652719013   -0.710627907616    2.901612142436
 C    1.285652719013   -2.114627907616    1.045612142436
 C    1.896652719013   -0.668627907616    3.382612142436
 C    2.606652719013   -2.080627907616    1.527612142436
 C    2.898652719013   -1.355627907616    2.695612142436
 H   -0.737347280987   -1.437627907616    1.359612142436
 H   -0.206347280987   -0.171627907616    3.419612142436
 H    1.047652719013   -2.665627907616    0.150612142436
 H    3.392652719013   -2.605627907616    1.000612142436
 H    1.736652719013    1.060372092384    4.598612142436
 H    3.309652719013    0.372372092384    4.556612142436
 H    3.917652719013   -1.326627907616    3.056612142436
 H    2.091292719013   -0.419137907616    5.566155442436
 C    0.063652719013    3.108372092384   -3.557387857564
 C   -0.774347280987   -0.114627907616   -1.709387857564
 C   -0.059347280987    0.902372092384   -2.352387857564
 C   -2.161347280987   -0.007627907616   -1.578387857564
 C   -0.715347280987    2.019372092384   -2.865387857564
 C   -2.831347280987    1.104372092384   -2.089387857564
 C   -2.101347280987    2.111372092384   -2.730387857564
 O   -2.865347280987   -0.992627907616   -0.947387857564
 H   -0.253347280987   -0.969627907616   -1.312387857564
 H    1.011652719013    0.829372092384   -2.440387857564
 H   -2.285347280987   -1.770627907616   -0.871387857564
 H   -3.900347280987    1.187372092384   -1.982387857564
 H    0.703652719013    3.596372092384   -2.820387857564
 H   -0.627347280987    3.853372092384   -3.950387857564
 H   -2.624347280987    2.972372092384   -3.125387857564
 H    0.688052719013    2.732432092384   -4.381278857564
