8
0 1 
 C   -0.273592558719   -0.152698124927   -0.694094660353
 C    0.270407441281    0.153301875073    0.692905339647
 H   -0.259592558719    0.752301875073   -1.293094660353
 H    0.367407441281   -0.892698124927   -1.164094660353
 H   -1.289592558719   -0.547698124927   -0.626094660353
 H    1.210407441281    0.687301875073    0.593905339647
 H   -0.441832558719    0.773451875073    1.256939339647
 H    0.451127441281   -0.779848124927    1.246600339647
