20
0 1 
 C   -0.934207293976    2.748484123066    0.622816023264
 C   -1.555207293976    4.045484123066    0.111816023264
 H   -1.112207293976    1.949484123066   -0.094183976736
 H    0.140792706024    2.874484123066    0.760816023264
 H   -1.384207293976    2.477484123066    1.578816023264
 H   -1.351207293976    4.816484123066    0.857816023264
 H   -2.645687293976    3.940414123066    0.012746023264
 H   -1.077814193976    4.351704123066   -0.830693976736
 C    2.063792706024   -1.940515876934   -1.482183976736
 C   -0.044207293976   -0.409515876934    1.046816023264
 C    0.942792706024   -1.496515876934   -0.589183976736
 C   -0.373207293976   -1.833515876934   -0.597183976736
 N    1.126792706024   -0.600515876934    0.445816023264
 N   -0.963207293976   -1.141515876934    0.432816023264
 H   -0.228207293976    0.251484123066    1.886816023264
 H   -1.962207293976   -1.106515876934    0.633816023264
 H   -0.855207293976   -2.508515876934   -1.286183976736
 H    2.502792706024   -1.053515876934   -1.932183976736
 H    1.659792706024   -2.560515876934   -2.284183976736
 H    2.852673706024   -2.491148876934   -0.948823976736
