8
0 1 
 C   -0.622319684767    0.431728934359   -0.076784097986
 C    0.627680315233   -0.423271065641    0.076215902014
 H   -1.044319684767    0.295728934359   -1.070784097986
 H   -1.368319684767    0.100728934359    0.644215902014
 H   -0.399319684767    1.483728934359    0.105215902014
 H    0.322680315233   -1.443271065641   -0.136784097986
 H    1.407930315233   -0.125861065641   -0.639854097986
 H    1.017520315233   -0.411761065641    1.104755902014
