15
0 1 
 C    2.423217013966    0.168755960691    0.292639821847
 C    0.385217013966   -0.127244039309   -1.154360178152
 C    0.933217013966    0.067755960691    0.110639821848
 C   -0.994782986034   -0.220244039309   -1.322360178152
 C    0.082217013966    0.155755960691    1.211639821848
 C   -1.835782986034   -0.129244039309   -0.220360178152
 C   -1.296782986034    0.056755960691    1.047639821847
 H    1.028217013966   -0.198244039309   -2.021360178152
 H   -1.411782986034   -0.363244039309   -2.311360178152
 H    2.656217013966    1.169755960691    0.658639821848
 H    2.895217013966    0.044755960691   -0.677360178152
 H    0.484217013966    0.318755960691    2.201639821847
 H   -2.908782986034   -0.201244039309   -0.349360178152
 H   -1.950782986034    0.130755960691    1.907639821848
 H    2.820976013966   -0.571374039309    1.002559821848
