7
-1 1 
 C    0.031218405845   -1.381595198338   -0.397027193865
 C    0.002218405845    0.080404801662    0.018972806135
 O   -0.982781594155    0.469404801662    0.670972806135
 O    0.947218405845    0.837404801662   -0.294027193865
 H   -0.547781594155   -1.991595198338    0.300972806135
 H    1.064218405845   -1.717595198338   -0.365027193865
 H   -0.350149594155   -1.537775198338   -1.416917193865
