17
0 1 
 C   -3.026744682369   -1.461071441338   -0.654525127213
 C   -3.974744682369   -0.799071441338   -1.644525127213
 H   -2.936744682369   -0.861071441338    0.250474872787
 H   -3.416744682369   -2.438071441338   -0.382525127213
 H   -2.044744682369   -1.599071441338   -1.106525127213
 H   -4.897744682369   -0.528071441338   -1.131525127213
 H   -4.227744682369   -1.547071441338   -2.391525127213
 H   -3.550406682369    0.088310558662   -2.136958127213
 C    0.583255317631   -0.231071441338   -0.056525127213
 C    3.113255317631    0.859928558662    0.177474872787
 S    1.544255317631    0.787928558662    1.063474872787
 H    1.041255317631   -1.212071441338   -0.158525127213
 H   -0.423744682369   -0.349071441338    0.343474872787
 H    0.524255317631    0.260928558662   -1.023525127213
 H    3.024255317631    1.580928558662   -0.636525127213
 H    3.320255317631   -0.116071441338   -0.260525127213
 H    3.949974317631    1.147731558662    0.830981872787
