26
0 1 
 C   -1.148239771643   -2.697288298903   -0.938027103002
 C   -0.106239771643   -3.734288298903   -1.315027103002
 H   -2.121239771643   -3.175288298903   -0.843027103002
 H   -0.892239771643   -2.248288298903    0.021972896998
 H   -1.191239771643   -1.914288298903   -1.696027103002
 H   -0.194239771643   -4.567288298903   -0.628027103002
 H   -0.220469771643   -4.077687298903   -2.353790103002
 H    0.902010228357   -3.305491298903   -1.217244103002
 C   -1.222239771643    1.039711701097   -1.137027103002
 C   -1.678239771643    2.498711701097   -1.230027103002
 C   -0.186239771643    0.809711701097   -0.084027103002
 C   -0.564239771643    0.637711701097    1.229972896998
 C    1.158760228357    0.745711701097   -0.425027103002
 C    0.402760228357    0.403711701097    2.176972896998
 C    2.125760228357    0.523711701097    0.519972896998
 C    1.743760228357    0.370711701097    1.827972896998
 H   -2.064239771643    0.393711701097   -0.941027103002
 H   -0.807239771643    0.737711701097   -2.101027103002
 H   -0.795239771643    3.110711701097   -1.352027103002
 H   -1.607239771643    0.667711701097    1.513972896998
 H    1.455760228357    0.859711701097   -1.457027103002
 H    0.117760228357    0.253711701097    3.208972896998
 H    3.170760228357    0.472711701097    0.240972896998
 H    2.491760228357    0.192711701097    2.588972896998
 H   -2.187909771643    2.845767701097   -0.319099103002
 H   -2.315009771643    2.632193701097   -2.116989103002
