28
0 1 
 C   -2.118040022986   -3.032874621069    0.480233274751
 C    0.796959977014   -0.842874621069   -0.491766725249
 C   -0.496040022986   -1.360874621069   -0.763766725249
 C   -0.822040022986   -2.289874621069    0.296233274751
 C    0.236959977014   -2.300874621069    1.142233274751
 C    1.434959977014    0.090125378931   -1.321766725249
 C    0.773959977014    0.529125378931   -2.452766725249
 C   -1.152040022986   -0.902874621069   -1.924766725249
 C   -0.507040022986    0.037125378931   -2.753766725249
 N    1.206959977014   -1.433874621069    0.681233274751
 H    2.090959977014   -1.248874621069    1.141233274751
 H    2.422959977014    0.445125378931   -1.057766725249
 H    0.219959977014   -2.931874621069    2.024233274751
 H    1.244959977014    1.251125378931   -3.104766725249
 H   -2.141040022986   -1.258874621069   -2.200766725249
 H   -1.888040022986   -3.964874621069    0.992233274751
 H   -2.499040022986   -3.263874621069   -0.519766725249
 H   -1.020040022986    0.378125378931   -3.641766725249
 H   -2.841640022986   -2.485554621069    1.102193274751
 C   -0.963040022986    3.423125378931    1.083233274751
 C    0.246959977014    2.610125378931    1.510233274751
 O    1.340959977014    3.139125378931    1.623233274751
 N    0.050959977014    1.345125378931    1.811233274751
 H    0.828959977014    0.769125378931    2.103233274751
 H   -0.879040022986    0.947125378931    1.741233274751
 H   -1.686040022986    2.756125378931    0.610233274751
 H   -0.638040022986    4.165125378931    0.352233274751
 H   -1.392890022986    3.965945378931    1.937963274751
