15
0 1 
 C    1.971911590876   -0.470265688836   -2.597152789804
 N    1.712911590876   -0.107265688836   -1.178152789804
 H    0.739911590876   -0.189265688836   -0.885152789804
 H    2.263911590876   -0.678265688836   -0.548152789804
 H    1.964911590876    0.855734311164   -0.994152789804
 H    1.849911590876   -1.549265688836   -2.733152789804
 H    3.000911590876   -0.216265688836   -2.872152789804
 H    1.282841590876    0.046720311164   -3.281182789804
 C   -2.059088409124    0.727734311164    1.786847210196
 C   -0.942088409124    0.115734311164    0.952847210196
 O   -0.074088409124    0.876734311164    0.474847210196
 O   -0.914088409124   -1.122265688836    0.783847210196
 H   -2.472088409124    1.595734311164    1.271847210196
 H   -1.629088409124    1.068734311164    2.730847210196
 H   -2.862648409124    0.009624311164    2.007307210196
