16
0 1 
 C   -0.808904296515    1.034417761560    1.104911724058
 C   -1.705904296515    2.203417761560    1.558911724058
 H   -0.548904296515    0.412417761560    1.962911724058
 H   -1.349904296515    0.427417761560    0.379911724058
 H    0.102095703485    1.410417761560    0.639911724058
 H   -2.603904296515    1.752417761560    1.978911724058
 H   -1.228742296515    2.810457761560    2.342371724058
 H   -2.028114296515    2.826637761560    0.711691724058
 C    0.628095703485   -1.880582238440   -0.991088275942
 C    1.896095703485   -1.355582238440   -1.671088275942
 H    0.523095703485   -1.432582238440   -0.003088275942
 H   -0.242904296515   -1.618582238440   -1.592088275942
 H    0.680095703485   -2.965582238440   -0.887088275942
 H    1.815095703485   -0.271582238440   -1.749088275942
 H    2.810107703485   -1.607672238440   -1.113388275942
 H    1.960263703485   -1.763662238440   -2.690578275942
