11
0 1 
 C    0.530582849289   -0.090374223358    0.157386624211
 C    0.145582849289    0.517625776642   -1.193613375789
 C   -0.648417150711   -0.441374223358    1.051386624211
 H    1.140582849289   -0.969374223358   -0.018613375789
 H    1.131582849289    0.659625776642    0.675386624211
 H   -0.607417150711    1.291625776642   -1.030613375789
 H   -1.341417150711    0.403625776642    1.069386624211
 H   -1.151417150711   -1.283374223358    0.587386624211
 H   -0.200447150711   -0.251324223358   -1.899995375789
 H    1.034182849289    0.982565776642   -1.645518375789
 H   -0.336047150711   -0.665214223358    2.082074624211
