12
0 1 
 C   -0.706035915733   -0.751941150954    0.332408159459
 C    0.250964084267   -1.472941150954    1.258408159459
 C   -0.013035915733    0.410058849046   -0.302591840541
 O    0.498964084267    1.270058849046    0.407408159459
 N   -0.072035915733    0.516058849046   -1.625591840541
 H   -1.091035915733   -1.428941150954   -0.428591840541
 H   -1.554035915733   -0.380941150954    0.908408159459
 H   -0.316035915733   -2.249941150954    1.765408159459
 H    0.602964084267   -0.776941150954    2.021408159459
 H    0.363964084267    1.309058849046   -2.070591840541
 H   -0.461035915733   -0.249941150954   -2.170591840541
 H    1.110864384267   -1.940619150954    0.756562159459
