13
-1 1 
 C   -2.450122802776    1.764762595539   -0.186645597265
 O   -1.729122802776    0.606762595539   -0.592645597265
 H   -1.431122802776    0.758762595539   -1.500645597265
 H   -3.413122802776    1.783762595539   -0.696645597265
 H   -2.614547802776    1.729582595539    0.900424402735
 H   -1.883804802776    2.664382595539   -0.469445597265
 C    0.319877197224   -1.280237404461    1.236354402735
 C    1.165877197224   -0.607237404461    0.166354402735
 O    1.337877197224   -1.180237404461   -0.933645597265
 O    1.677877197224    0.501762595539    0.437354402735
 H   -0.422122802776   -0.597237404461    1.624354402735
 H    0.987877197224   -1.535237404461    2.061354402735
 H   -0.160363802776   -2.204777404461    0.883364402735
