16
0 1 
 C   -0.414157998249    1.902206476279   -2.195669392847
 C    0.310842001751    0.487206476279    1.262330607153
 C    0.195842001751   -0.878793523721    1.033330607153
 C    0.111842001751    1.381206476279    0.216330607153
 C   -0.203157998249    0.925206476279   -1.062669392847
 C   -0.116157998249   -1.348793523721   -0.237669392847
 C   -0.314157998249   -0.446793523721   -1.277669392847
 O    0.389842001751   -1.756793523721    2.057330607153
 H    0.553842001751    0.843206476279    2.252330607153
 H    0.202842001751    2.443206476279    0.401330607153
 H   -0.203157998249   -2.410793523721   -0.416669392847
 H    0.267842001751   -2.671793523721    1.782330607153
 H    0.017842001751    1.467206476279   -3.092669392847
 H    0.118842001751    2.827206476279   -1.971669392847
 H   -0.568157998249   -0.814793523721   -2.260669392847
 H   -1.467677998249    2.129139476279   -2.416139192847
