9
0 1 
 C   -0.680933127799    0.960041391782    0.886480004904
 C    0.057066872201   -0.030958608218   -0.001519995096
 O    1.227066872201   -0.323958608218    0.204480004904
 N   -0.566933127799   -0.574958608218   -1.023519995096
 H   -0.708933127799    0.574041391782    1.903480004904
 H   -1.697933127799    1.098041391782    0.526480004904
 H   -0.046933127799   -1.191958608218   -1.630519995096
 H   -1.539933127799   -0.348958608218   -1.219519995096
 H   -0.175273127799    1.936539391782    0.858912004904
