16
0 1 
 C    1.428394578048    0.762924585613    0.101559959813
 C    1.935394578048    1.633924585613   -1.046440040187
 H    0.498394578048    1.172924585613    0.498559959813
 H    1.259394578048   -0.249075414387   -0.268440040187
 H    2.170394578048    0.685924585613    0.894559959813
 H    2.878394578048    1.223924585613   -1.384440040187
 H    2.097004578048    2.675741585613   -0.732596140187
 H    1.236784578048    1.603675585613   -1.895575040187
 C   -1.717605421952   -1.178075414387    1.229559959813
 C   -1.652605421952   -1.217075414387   -0.282440040187
 H   -2.494605421952   -1.853075414387    1.595559959813
 H   -0.756605421952   -1.481075414387    1.651559959813
 H   -1.943605421952   -0.164075414387    1.562559959813
 H   -0.883605421952   -0.525075414387   -0.620440040187
 H   -2.613908421952   -0.886296314387   -0.702537040187
 H   -1.371575421952   -2.223739414387   -0.625440840187
