20
0 1 
 C    0.209833794454   -1.637519153828   -1.320066754868
 C   -1.838166205546   -0.205519153828   -1.308066754868
 N   -0.616166205546   -0.495519153828   -0.878066754868
 N   -2.398166205546   -0.896519153828   -2.284066754868
 N   -2.489166205546    0.810480846172   -0.772066754868
 H   -0.208166205546    0.093480846172   -0.159066754868
 H    1.263833794454   -1.356519153828   -1.309066754868
 H   -0.047166205546   -1.966519153828   -2.327066754868
 H   -1.917166205546   -1.684519153828   -2.681066754868
 H   -3.325166205546   -0.664519153828   -2.603066754868
 H   -2.063166205546    1.341480846172   -0.029066754868
 H   -3.413166205546    1.051480846172   -1.091066754868
 H    0.072352794454   -2.463089153828   -0.606246754868
 C    2.972833794454    0.789480846172    2.436933245132
 C    1.733833794454    0.603480846172    1.589933245132
 O    1.719833794454    1.009480846172    0.411933245132
 O    0.777833794454    0.033480846172    2.158933245132
 H    3.134833794454   -0.093519153828    3.056933245132
 H    2.794833794454    1.636480846172    3.102933245132
 H    3.882673794454    0.992550846172    1.853013245132
