26
0 1 
 C    3.190056285891    0.158416296724    0.432901594659
 C   -0.060943714109   -1.762583703276    0.543901594659
 C    1.205056285891   -1.357583703276    0.183901594659
 C   -0.747943714109   -1.050583703276    1.528901594659
 C    1.798056285891   -0.262583703276    0.799901594659
 C   -0.175943714109    0.054416296724    2.156901594659
 C    1.110056285891    0.444416296724    1.792901594659
 H   -0.511943714109   -2.623583703276    0.072901594659
 H    1.732056285891   -1.888583703276   -0.593098405341
 H   -1.740943714109   -1.368583703276    1.818901594659
 H   -0.718943714109    0.593416296724    2.919901594659
 H    3.326056285891    1.206416296724    0.672901594659
 H    3.286056285891    0.044416296724   -0.635098405341
 H    1.573056285891    1.294416296724    2.275901594659
 H    3.980626285891   -0.431813703276    0.919351594659
 C   -1.707943714109    0.715416296724   -1.843098405341
 C   -1.615943714109    0.661416296724   -3.369098405341
 C   -2.576943714109    1.898416296724   -1.355098405341
 H   -2.128943714109   -0.223583703276   -1.476098405341
 H   -0.701943714109    0.822416296724   -1.432098405341
 H   -1.259943714109    1.632416296724   -3.725098405341
 H   -2.099943714109    2.835416296724   -1.643098405341
 H   -3.573943714109    1.865416296724   -1.788098405341
 H   -2.603483714109    0.452186296724   -3.806108405341
 H   -0.876943714109   -0.081173703276   -3.704418405341
 H   -2.652723714109    1.834186296724   -0.259588405341
