20
0 1 
 C   -1.404384327793   -1.894947570865    3.220028742254
 C   -0.448384327793   -1.547947570865    2.070028742254
 O   -0.257384327793   -0.339947570865    1.805028742254
 O    0.103615672207   -2.479947570865    1.437028742254
 H   -1.195384327793   -1.255947570865    4.079028742254
 H   -1.262384327793   -2.938947570865    3.507028742254
 H   -2.456064327793   -1.759507570865    2.927408742254
 C    0.016615672207    1.625052429135   -3.605971257746
 C    0.492615672207    1.160052429135   -1.231971257746
 N   -0.585384327793    0.415052429135   -1.112971257746
 N    0.810615672207    1.724052429135   -2.383971257746
 N    1.287615672207    1.345052429135   -0.204971257746
 H   -1.182384327793    0.251052429135   -1.917971257746
 H   -0.812384327793   -0.007947570865   -0.224971257746
 H    1.661615672207    2.284052429135   -2.428971257746
 H    2.131615672207    1.907052429135   -0.319971257746
 H    1.066615672207    0.925052429135    0.689028742254
 H   -0.893384327793    1.065052429135   -3.386971257746
 H    0.592615672207    1.074052429135   -4.352971257746
 H   -0.232814327793    2.631912429135   -3.972041257746
