19
0 1 
 C    1.572533332920    1.657581465232   -1.966408048714
 C   -0.838466667080   -0.463418534768    0.063591951286
 C    0.402533332920    0.219581465232   -0.043408048714
 C    0.462533332920    0.808581465232   -1.367408048714
 C   -0.671466667080    0.413581465232   -1.996408048714
 C   -1.227466667080   -1.139418534768    1.218591951286
 C   -0.357466667080   -1.142418534768    2.293591951286
 C    1.244533332920    0.245581465232    1.077591951286
 C    0.855533332920   -0.428418534768    2.240591951286
 N   -1.457466667080   -0.343418534768   -1.150408048714
 H   -2.398466667080   -0.667418534768   -1.376408048714
 H   -2.164466667080   -1.672418534768    1.264591951286
 H   -0.925466667080    0.687581465232   -3.010408048714
 H   -0.632466667080   -1.660418534768    3.201591951286
 H    2.174533332920    0.789581465232    1.043591951286
 H    1.988533332920    2.301581465232   -1.192408048714
 H    1.140533332920    2.304581465232   -2.729408048714
 H    1.503533332920   -0.424418534768    3.104591951286
 H    2.385113332920    1.074081465232   -2.423843048714
