15
0 1 
 C    1.586430219981    0.158502777005   -1.859409190246
 C   -0.942569780019    1.097502777005    0.792590809754
 C   -0.008569780019    1.185502777005   -0.226409190246
 C   -1.229569780019   -0.120497222995    1.392590809754
 C    0.649430219981    0.070502777005   -0.681409190246
 C   -0.587569780019   -1.257497222995    0.932590809754
 C    0.352430219981   -1.150497222995   -0.094409190246
 H   -1.451569780019    1.992502777005    1.119590809754
 H    0.164430219981    2.133502777005   -0.700409190246
 H   -1.968569780019   -0.189497222995    2.176590809754
 H   -0.826569780019   -2.220497222995    1.357590809754
 H    1.055430219981    0.677502777005   -2.659409190246
 H    1.813430219981   -0.844497222995   -2.223409190246
 H    0.830430219981   -2.046497222995   -0.462409190246
 H    2.526080219981    0.693711777005   -1.657899190246
