11
0 1 
 C   -0.298971522281   -0.221803842812   -0.445873220519
 C   -0.840971522281   -0.097803842812    0.977126779481
 C    1.117028477719    0.303196157188   -0.560873220519
 H   -0.334971522281   -1.255803842812   -0.769873220519
 H   -0.942971522281    0.345196157188   -1.116873220519
 H   -0.036971522281   -0.349803842812    1.673126779481
 H    1.176028477719    1.303196157188   -0.130873220519
 H    1.781028477719   -0.339803842812    0.022126779481
 H   -1.668218522281   -0.805793842812    1.133366779481
 H   -1.156823522281    0.941966157188    1.147756779481
 H    1.455739477719    0.356256157188   -1.606081220519
