15
0 1 
 C    0.128009550387   -1.075431620621    1.444686953236
 C   -1.228990449613   -1.766431620621    1.594686953236
 C    0.190009550387   -0.101431620621    0.306686953236
 C    0.345009550387    1.248568379379    0.316686953236
 C    0.214009550387    0.590568379379   -1.778313046764
 N    0.113009550387   -0.485431620621   -1.012313046764
 N    0.359009550387    1.656568379379   -0.999313046764
 H    0.375009550387   -0.552431620621    2.370686953236
 H    0.891009550387   -1.834431620621    1.277686953236
 H   -1.462990449613   -2.219431620621    0.629686953236
 H    0.448009550387    1.872568379379    1.195686953236
 H    0.047009550387    0.621568379379   -2.837313046764
 H    0.464009550387    2.606568379379   -1.330313046764
 H   -2.006640449613   -1.041471620621    1.876986953236
 H   -1.123180449613   -2.578101620621    2.329486953236
