23
0 1 
 C    0.733923140072   -2.685394026067    0.249884791701
 C    1.163923140072   -0.245394026067    0.762884791701
 C    0.832923140072   -1.237394026067   -0.170115208299
 C    1.242923140072    1.096605973933    0.381884791701
 C    0.983923140072    1.459605973933   -0.938115208299
 C    0.574923140072   -0.862394026067   -1.490115208299
 C    0.648923140072    0.479605973933   -1.874115208299
 H    1.334923140072   -0.490394026067    1.799884791701
 H    1.494923140072    1.853605973933    1.112884791701
 H    0.699923140072   -3.328394026067   -0.631115208299
 H   -0.210076859928   -2.803394026067    0.783884791701
 H    1.040923140072    2.498605973933   -1.236115208299
 H    0.310923140072   -1.615394026067   -2.217115208299
 H    0.443923140072    0.762605973933   -2.898115208299
 H    1.552213140072   -3.014147026067    0.907394791701
 C   -2.112076859928    1.370605973933    1.642884791701
 C   -3.273076859928    0.633605973933    0.973884791701
 H   -1.431076859928    1.748605973933    0.880884791701
 H   -2.489076859928    2.211605973933    2.221884791701
 H   -1.569076859928    0.695605973933    2.301884791701
 H   -3.956076859928    0.302605973933    1.753884791701
 H   -2.891826859928   -0.237814026067    0.421364791701
 H   -3.812046859928    1.303730973933    0.287994791701
