11
0 1 
 C   -0.361065159313    0.355275849061   -0.255929965458
 C   -0.528065159313   -0.081724150939    1.208070034542
 C    0.860934840687   -0.253724150939   -0.963929965458
 H   -1.258065159313    0.105275849061   -0.819929965458
 H   -0.256065159313    1.440275849061   -0.280929965458
 H   -0.661065159313   -1.159724150939    1.224070034542
 H    1.759934840687    0.005275849061   -0.407929965458
 H   -1.413735159313    0.398355849061    1.649780034542
 H    0.392864840687    0.164005849061    1.757170034542
 H    0.787814840687   -1.350464150939   -1.006519965458
 H    0.984034840687    0.160915849061   -1.975329965458
