11
0 1 
 C    0.216001567728    0.521815971108    0.045831730400
 C   -1.252998432272    0.205815971108    0.262831730400
 C    1.046001567728   -0.692184028892   -0.308168269600
 H    0.309001567728    1.242815971108   -0.769168269600
 H    0.620001567728    0.988815971108    0.935831730400
 H   -1.315998432272   -0.494184028892    1.099831730400
 H    0.928001567728   -1.427184028892    0.488831730400
 H    0.683001567728   -1.138184028892   -1.235168269600
 H   -1.674828432272   -0.238774028892   -0.650628269600
 H   -1.777418432272    1.131345971108    0.542811730400
 H    2.121021567728   -0.486724028892   -0.418238269600
