30
0 1 
 C   -0.986342353069   -2.731580095961    3.531451188366
 C    0.463657646931   -0.231580095961    1.116451188366
 C   -0.470342353069   -1.249580095961    1.427451188366
 C   -0.231342353069   -1.670580095961    2.781451188366
 C    0.798657646931   -0.908580095961    3.229451188366
 C   -0.402342353069   -0.053580095961   -1.082548811634
 C    0.505657646931    0.380419904039   -0.127548811634
 C   -1.323342353069   -1.067580095961   -0.804548811634
 C   -1.365342353069   -1.667580095961    0.436451188366
 N    1.231657646931   -0.051580095961    2.237451188366
 H   -0.395342353069    0.382419904039   -2.065548811634
 H    1.219657646931    1.160419904039   -0.337548811634
 H   -2.004342353069   -1.395580095961   -1.571548811634
 H   -2.088342353069   -2.441580095961    0.643451188366
 H    1.994657646931    0.610419904039    2.344451188366
 H    1.235657646931   -0.972580095961    4.216451188366
 H   -0.411342353069   -3.651580095961    3.525451188366
 H   -1.889342353069   -2.918580095961    2.956451188366
 H   -1.258082353069   -2.435990095961    4.555551188366
 C    0.122657646931    2.375419904039   -4.048548811634
 C   -0.064342353069    3.880419904039   -4.336548811634
 C    1.446657646931    2.086419904039   -3.323548811634
 H   -0.710342353069    2.029419904039   -3.440548811634
 H    0.108657646931    1.799419904039   -4.967548811634
 H    0.869657646931    4.282419904039   -4.729548811634
 H    1.439657646931    2.509419904039   -2.320548811634
 H    1.590657646931    1.009419904039   -3.242548811634
 H    2.279657646931    2.507419904039   -3.885548811634
 H   -0.863532353069    4.048859904039   -5.073380811634
 H   -0.297702353069    4.408519904039   -3.400248811634
