18
-1 1 
 C    0.871458480874   -1.690244245263    1.133671436002
 C    1.083458480874   -0.683244245263    2.265671436002
 C    2.080458480874   -1.913244245263    0.228671436002
 H    0.627458480874   -2.655244245263    1.577671436002
 H    0.017458480874   -1.391244245263    0.528671436002
 H    1.101458480874    0.314755754737    1.825671436002
 H    2.958458480874   -2.178244245263    0.816671436002
 H    1.857458480874   -2.763244245263   -0.418328563998
 H    2.009223480874   -0.902584245263    2.817802436002
 H    0.233368480874   -0.702183245263    2.963517436002
 H    2.308481480874   -1.049347245263   -0.412957563998
 C   -0.520541519126    2.148755754737   -1.713328563998
 C   -1.052541519126    1.010755754737   -0.854328563998
 O   -1.217541519126    1.206755754737    0.356671436002
 O   -1.260541519126   -0.104244245263   -1.396328563998
 H   -1.064541519126    2.192755754737   -2.659328563998
 H    0.523458480874    1.927755754737   -1.945328563998
 H   -0.561400519126    3.130796754737   -1.219440563998
