16
0 1 
 C    1.532540540392   -0.616967501458    1.271460923949
 C    0.535540540392   -1.394967501458    2.120460923949
 H    1.470540540392   -0.911967501458    0.227460923949
 H    1.299540540392    0.442032498542    1.332460923949
 H    2.545540540392   -0.769967501458    1.638460923949
 H   -0.470459459608   -1.056967501458    1.871460923949
 H    0.601130540392   -2.475107501458    1.922970923949
 H    0.706990540392   -1.193857501458    3.188240923949
 C   -0.750459459608    0.610032498542   -1.108539076051
 C   -1.321459459608    1.395032498542   -2.283539076051
 H   -1.481459459608   -0.106967501458   -0.730539076051
 H    0.144540540392    0.084032498542   -1.435539076051
 H   -0.471459459608    1.296032498542   -0.307539076051
 H   -0.538459459608    2.051032498542   -2.667539076051
 H   -2.162829459608    2.015302498542   -1.940959076051
 H   -1.597919459608    0.708202498542   -3.097079076051
