8
0 1 
 C    0.274945359155   -0.342281324583   -0.613105320859
 C   -0.270054640845    0.345718675417    0.612894679141
 H    0.919945359155   -1.176281324583   -0.337105320859
 H   -0.554054640845   -0.744281324583   -1.199105320859
 H    0.838945359155    0.349718675417   -1.238105320859
 H   -0.759054640845   -0.404281324583    1.232894679141
 H    0.527618359155    0.837758675417    1.188754679141
 H   -1.031632740845    1.096438675417    0.355174679141
