20
0 1 
 C    1.169676735988    1.445013776529    1.463024902980
 C   -0.193323264012   -0.502986223471    2.113024902980
 N   -0.438323264012   -0.780986223471    0.843024902980
 N    0.612676735988    0.498013776529    2.430024902980
 N   -0.680323264012   -1.277986223471    3.063024902980
 H    0.102676735988   -0.342986223471    0.098024902980
 H   -1.011323264012   -1.572986223471    0.609024902980
 H    0.831676735988    0.638013776529    3.407024902980
 H   -0.434323264012   -1.116986223471    4.028024902980
 H   -1.244323264012   -2.079986223471    2.829024902980
 H    1.419676735988    0.963013776529    0.519024902980
 H    2.097676735988    1.847013776529    1.878024902980
 H    0.477238735988    2.282633776529    1.292939902980
 C   -1.079323264012    1.194013776529   -2.133975097020
 C   -0.061323264012    0.114013776529   -2.507975097020
 O    0.722676735988   -0.281986223471   -1.619975097020
 O   -0.047323264012   -0.355986223471   -3.667975097020
 H   -0.552323264012    2.025013776529   -1.661975097020
 H   -1.795323264012    0.791013776529   -1.414975097020
 H   -1.623348264012    1.588813776529   -3.004705097020
