24
0 1 
 C    1.152964173207   -2.603879851907    1.291463103579
 C    1.031964173207   -3.517879851907    2.529463103579
 S    2.834964173207   -1.960879851907    1.070463103579
 H    0.898964173207   -3.148879851907    0.383463103579
 H    0.498964173207   -1.741879851907    1.390463103579
 H    1.492964173207   -3.015879851907    3.381463103579
 H    2.567964173207   -1.251879851907   -0.032536896421
 H    1.548924173207   -4.472029851907    2.349623103579
 H   -0.014135826793   -3.648279851907    2.843583103579
 C   -0.613035826793    0.709120148093    0.496463103579
 C   -1.645035826793    0.888120148093    1.641463103579
 C   -1.036035826793    1.358120148093   -0.801536896421
 C   -1.373035826793    0.792120148093   -1.995536896421
 C   -1.501035826793    2.975120148093   -2.228536896421
 N   -1.126035826793    2.727120148093   -0.979536896421
 N   -1.656035826793    1.815120148093   -2.863536896421
 H    0.330964173207    1.171120148093    0.787463103579
 H   -0.447035826793   -0.342879851907    0.282463103579
 H   -1.818035826793    1.955120148093    1.781463103579
 H   -1.433035826793   -0.237879851907   -2.293536896421
 H   -1.639035826793    3.985120148093   -2.597536896421
 H   -1.933035826793    1.700120148093   -3.826536896421
 H   -1.283155826793    0.457550148093    2.586793103579
 H   -2.624235826793    0.531590148093    1.289243103579
