29
-1 1 
 C    1.150049484511    0.242893474903   -3.901569841732
 C    0.119049484511    1.317893474903   -0.413569841732
 C    1.031049484511    0.667893474903   -1.289569841732
 C    0.528049484511    0.818893474903   -2.626569841732
 C   -0.633950515489    1.529893474903   -2.516569841732
 C    0.301049484511    1.373893474903    0.958430158268
 C    1.426049484511    0.750893474903    1.481430158268
 C    2.166049484511    0.046893474903   -0.739569841732
 C    2.350049484511    0.087893474903    0.644430158268
 N   -0.882950515489    1.830893474903   -1.191569841732
 H   -1.678950515489    2.351893474903   -0.840569841732
 H   -0.426950515489    1.889893474903    1.572430158268
 H   -1.207950515489    1.767893474903   -3.407569841732
 H    1.591049484511    0.776893474903    2.549430158268
 H    2.900049484511   -0.460106525097   -1.354569841732
 H    2.231049484511    0.169893474903   -3.737569841732
 H    0.971049484511    0.959893474903   -4.703569841732
 H    3.218049484511   -0.401106525097    1.060430158268
 H    0.730849484511   -0.723206525097   -4.219339841732
 C   -2.129950515489   -0.888106525097    1.543430158268
 C   -2.412950515489   -1.324106525097    0.089430158268
 C   -1.003950515489   -1.662106525097    2.248430158268
 O   -0.408950515489   -2.592106525097    1.649430158268
 O   -0.727950515489   -1.311106525097    3.428430158268
 H   -1.877950515489    0.170893474903    1.535430158268
 H   -3.055950515489   -1.021106525097    2.107430158268
 H   -1.514950515489   -1.148106525097   -0.511569841732
 H   -3.259800515489   -0.725306525097   -0.277039841732
 H   -2.725930515489   -2.377186525097    0.034160158268
