8
0 1 
 C   -0.508239593929    0.548352036109    0.184210960832
 C    0.506760406071   -0.544647963891   -0.180789039168
 H   -0.014239593929    1.265352036109    0.824210960832
 H   -0.887239593929    1.038352036109   -0.713789039168
 H   -1.329239593929    0.067352036109    0.701210960832
 H   -0.010239593929   -1.326647963891   -0.740789039168
 H    0.975070406071   -0.981315833891    0.713640960832
 H    1.283500406071   -0.107196063891   -0.825229039168
