24
1 1 
 C    0.406108512786    2.313031453429   -1.319025314251
 C   -1.097891487214    0.991031453429    0.169974685749
 N   -0.778891487214    1.519031453429   -1.002025314251
 N   -0.328891487214    1.170031453429    1.227974685749
 N   -2.190891487214    0.248031453429    0.264974685749
 H   -1.460891487214    1.365031453429   -1.744025314251
 H    0.469108512786    1.779031453429    1.169974685749
 H   -0.564891487214    0.738031453429    2.108974685749
 H   -2.754891487214    0.100031453429   -0.566025314251
 H   -2.460891487214   -0.163968546571    1.141974685749
 H    1.290108512786    1.874031453429   -0.853025314251
 H    0.276108512786    3.340031453429   -0.971025314251
 H    0.536708512786    2.301551453429   -2.411185314251
 C    0.813108512786   -2.234968546571    0.303974685749
 C    1.357108512786   -1.991968546571   -1.115025314251
 C    1.826108512786   -2.061968546571    1.432974685749
 H   -0.006891487214   -1.540968546571    0.469974685749
 H    0.406108512786   -3.241968546571    0.372974685749
 H    1.890108512786   -1.038968546571   -1.131025314251
 H    2.614108512786   -2.805968546571    1.311974685749
 H    2.284108512786   -1.073968546571    1.359974685749
 H    0.528018512786   -1.949908546571   -1.836725314251
 H    2.057838512786   -2.789828546571   -1.402085314251
 H    1.382448512786   -2.161198546571    2.434634685749
