24
0 1 
 C   -0.286556949133   -0.150551305443   -2.985718916084
 C   -0.242556949133    0.939448694557   -0.723718916083
 C    0.347443050867    0.082448694557   -1.646718916083
 C    0.343443050867    1.166448694557    0.521281083917
 C    1.546443050867   -0.539551305443   -1.311718916083
 C    1.527443050867    0.522448694557    0.856281083917
 C    2.132443050867   -0.329551305443   -0.064718916083
 O    2.101443050867    0.735448694557    2.077281083917
 H   -1.161556949133    1.449448694557   -0.973718916083
 H   -0.120556949133    1.830448694557    1.235281083917
 H    0.511443050867   -0.175551305443   -3.722718916083
 H   -0.930556949133    0.692448694557   -3.236718916083
 H    2.036443050867   -1.190551305443   -2.023718916083
 H    3.061443050867   -0.825551305443    0.182281083917
 H    2.885443050867    0.191448694557    2.207281083917
 H   -0.860602949133   -1.086251305443   -3.056038916083
 C   -3.331556949133   -0.397551305443    1.084281083917
 C   -3.562556949133   -1.797551305443    1.610281083917
 H   -4.273556949133    0.064448694557    0.792281083917
 H   -2.871556949133    0.215448694557    1.860281083917
 H   -2.657556949133   -0.430551305443    0.227281083917
 H   -2.616556949133   -2.176551305443    1.993281083917
 H   -3.894194949133   -2.450011305443    0.789121083916
 H   -4.289531949133   -1.780191305443    2.435631083916
