12
0 1 
 C    1.292700316684    0.683935424843   -1.663338221732
 C   -0.216299683316   -0.398064575157    1.461661778268
 C    0.378700316684    0.222935424843   -0.564338221732
 C   -0.947299683316   -0.069064575157   -0.583338221732
 N    0.815700316684    0.009935424843    0.729661778268
 N   -1.295299683316   -0.453064575157    0.690661778268
 H   -0.185299683316   -0.661064575157    2.514661778268
 H   -2.207299683316   -0.788064575157    1.010661778268
 H   -1.588299683316   -0.057064575157   -1.435338221732
 H    2.278700316684    0.262935424843   -1.476338221732
 H    1.353700316684    1.768935424843   -1.608338221732
 H    0.965917316684    0.395385424843   -2.673268221732
