6
0 1 
 C    0.365367321029    0.631293711954   -0.066703109326
 O   -0.378632678971   -0.581706288046    0.018296890674
 H   -0.007632678971   -1.120706288046    0.732296890674
 H    0.604367321029    0.965293711954    0.942296890674
 H    1.301277321029    0.459303711954   -0.618503109326
 H   -0.239202678971    1.411503711954   -0.552253109326
