8
0 1 
 C    0.309228331129   -0.649444198146    0.252769036838
 C   -0.311771668871    0.647555801854   -0.258230963162
 H    0.131228331129   -1.448444198146   -0.464230963162
 H    1.384228331129   -0.523444198146    0.390769036838
 H   -0.140771668871   -0.920444198146    1.208769036838
 H   -0.107771668871    1.418555801854    0.487769036838
 H   -1.402251668871    0.542485801854   -0.357300963162
 H    0.165621431129    0.953775801854   -1.200740963162
