8
0 1 
 C    0.692433682363   -0.252290045419    0.221735585231
 C   -0.693566317637    0.255709954581   -0.223264414769
 H    0.860433682363   -0.032290045419    1.276735585231
 H    1.475433682363    0.213709954581   -0.378264414769
 H    0.738433682363   -1.334290045419    0.093735585231
 H   -1.435566317637   -0.186290045419    0.436735585231
 H   -0.742913317637    1.352079954581   -0.148884414769
 H   -0.882335317637   -0.053640045419   -1.261854414769
