15
0 1 
 C    2.213698342280    1.073459737567   -0.009207673156
 C   -0.068301657720    0.686459737567   -1.028207673156
 C    0.843698342280    0.427459737567    0.006792326844
 C   -1.320301657720    0.072459737567   -1.035207673156
 C    0.492698342280   -0.464540262433    1.037792326844
 C   -1.669301657720   -0.826540262433   -0.008207673156
 C   -0.767301657720   -1.105540262433    1.037792326844
 H    0.200698342280    1.366459737567   -1.825207673156
 H   -2.018301657720    0.289459737567   -1.833207673156
 H    2.443698342280    1.368459737567    1.014792326844
 H    2.137698342280    1.971459737567   -0.626207673156
 H    1.199698342280   -0.659540262433    1.828792326844
 H   -2.640301657720   -1.307540262433   -0.021207673156
 H   -1.048301657720   -1.800540262433    1.823792326844
 H    3.000818342280    0.400419737567   -0.379957673156
