15
0 1 
 C    0.978082774864   -1.472679454672    0.385138164573
 C    0.147082774864   -2.689679454672   -0.036861835427
 C    0.327082774864   -0.146679454672    0.097138164573
 C    0.508082774864    0.713320545328   -0.940861835427
 C   -1.003917225136    1.579320545328    0.397138164573
 N   -0.620917225136    0.420320545328    0.919138164573
 N   -0.336917225136    1.784320545328   -0.733861835427
 H    1.189082774864   -1.528679454672    1.453138164573
 H    1.918082774864   -1.525679454672   -0.156861835427
 H   -0.035917225136   -2.628679454672   -1.108861835427
 H    1.188082774864    0.573320545328   -1.770861835427
 H   -1.732917225136    2.245320545328    0.836138164573
 H   -0.469917225136    2.575320545328   -1.359861835427
 H   -0.803786225136   -2.701831454672    0.516040164573
 H    0.667920774864   -3.632250454672    0.187387164573
