25
0 1 
 C    2.557225448616   -0.903864943031    1.266691646908
 C    1.237225448616   -1.501864943031    1.708691646908
 O    0.575225448616   -1.046864943031    2.632691646908
 N    0.862225448616   -2.554864943031    1.032691646908
 H    2.412225448616   -0.470864943031    0.276691646908
 H    3.289225448616   -1.707864943031    1.186691646908
 H   -0.064774551384   -2.927864943031    1.174691646908
 H    1.441225448616   -2.872864943031    0.264691646908
 H    2.943395448616   -0.141573943031    1.959356646908
 C   -1.253774551384   -1.465864943031   -2.725308353092
 C   -1.417774551384    0.930135056969    0.286691646908
 C   -0.446774551384    1.890135056969   -0.023308353092
 C   -1.693774551384   -0.128864943031   -0.591308353092
 C   -1.019774551384   -0.252864943031   -1.814308353092
 C    0.262225448616    1.773135056969   -1.238308353092
 C   -0.025774551384    0.686135056969   -2.119308353092
 O   -0.211774551384    2.930135056969    0.846691646908
 H   -1.947774551384    1.010135056969    1.221691646908
 H   -2.436774551384   -0.864864943031   -0.317308353092
 H    1.022225448616    2.498135056969   -1.496308353092
 H    0.462225448616    3.531135056969    0.506691646908
 H   -1.236774551384   -1.169864943031   -3.775308353092
 H   -2.238774551384   -1.875864943031   -2.499308353092
 H    0.526225448616    0.598135056969   -3.046308353092
 H   -0.476314551384   -2.215558943031   -2.516708353092
