16
0 1 
 C   -0.305496461821    1.365797453318    1.027098682013
 C   -0.284496461821    2.235797453318    2.296098682013
 H    0.279503538179    1.832797453318    0.236098682013
 H    0.133503538179    0.392797453318    1.242098682013
 H   -1.332496461821    1.223797453318    0.691098682013
 H    0.753503538179    2.469797453318    2.535098682013
 H   -0.671496461821    1.612797453318    3.100098682013
 H   -0.863326461821    3.169617453318    2.241918682013
 C   -0.413496461821   -1.554202546682   -1.477901317987
 C    0.997503538179   -2.044202546682   -1.849901317987
 H   -0.642496461821   -1.817202546682   -0.443901317987
 H   -0.462496461821   -0.469202546682   -1.572901317987
 H   -1.154496461821   -2.005202546682   -2.138901317987
 H    1.700503538179   -1.597202546682   -1.148901317987
 H    1.092963538179   -3.139548546682   -1.816661317987
 H    1.238103538179   -1.711226546682   -2.870311317987
