19
0 1 
 C   -1.666983537797   -1.645196775543   -0.352398173491
 C   -1.982983537797   -2.428196775543   -1.570398173491
 H   -0.612983537797   -1.386196775543   -0.305398173491
 H   -2.256983537797   -0.728196775543   -0.349398173491
 H   -1.944983537797   -2.223196775543    0.526601826509
 H   -2.012983537797   -1.754196775543   -2.416398173491
 H   -2.984983537797   -2.847196775543   -1.462398173491
 H   -1.268713537797   -3.247086775543   -1.741390173491
 C    0.971016462203    0.898803224457    0.580601826509
 C    2.312016462203    1.240803224457   -0.091398173491
 C    0.446016462203    1.992803224457    1.464601826509
 H    0.228016462203    0.686803224457   -0.187398173491
 H    1.057016462203    0.009803224457    1.202601826509
 H    2.874016462203    1.885803224457    0.581601826509
 H    0.257016462203    2.897803224457    0.887601826509
 H   -0.480983537797    1.661803224457    1.928601826509
 H    1.165016462203    2.205803224457    2.256601826509
 H    2.921056462203    0.341953224457   -0.267868173491
 H    2.118856462203    1.793603224457   -1.022582173491
