16
-1 1 
 C    1.762222029567    2.396701923551    1.229980398211
 C    1.785222029567    0.923701923551    0.873980398211
 O    2.400222029567    0.573701923551   -0.158019601789
 O    1.192222029567    0.111701923551    1.623980398211
 H    1.844222029567    3.012701923551    0.331980398211
 H    2.645222029567    2.591701923551    1.839980398211
 H    0.857522029567    2.675955923551    1.789927398211
 C   -2.351777970433   -2.130298076449   -0.159019601789
 C   -1.791777970433   -0.967298076449   -0.966019601789
 O   -2.129777970433   -0.779298076449   -2.132019601789
 N   -0.928777970433   -0.175298076449   -0.351019601789
 H   -0.527777970433    0.586701923551   -0.883019601789
 H   -0.543777970433   -0.391298076449    0.561980398211
 H   -3.327777970433   -1.828298076449    0.222980398211
 H   -1.696777970433   -2.331298076449    0.690980398211
 H   -2.461857970433   -3.043278076449   -0.762635601789
