19
0 1 
 C   -1.062128525602   -0.478141056300    0.935162258041
 C   -0.233128525602   -1.090141056300    2.067162258041
 C   -2.543128525602   -0.371141056300    1.252162258041
 H   -0.676128525602    0.510858943700    0.686162258041
 H   -0.947128525602   -1.111141056300    0.053162258041
 H   -0.711128525602   -2.011141056300    2.410162258041
 H   -2.883128525602   -1.331141056300    1.635162258041
 H   -2.685128525602    0.389858943700    2.020162258041
 H   -0.105638525602   -0.375001056300    2.893192258041
 H    0.770271474398   -1.345351056300    1.695612258041
 H   -3.117738525602   -0.123851056300    0.347352258041
 C    1.323871474398    0.462858943700   -1.916837741959
 C    2.437871474398    1.449858943700   -2.263837741959
 H    0.413871474398    0.979858943700   -1.612837741959
 H    1.079871474398   -0.121141056300   -2.805837741959
 H    1.643871474398   -0.223141056300   -1.134837741959
 H    2.088871474398    2.143858943700   -3.004837741959
 H    2.741531474398    2.021358943700   -1.374357741959
 H    3.300301474398    0.914088943700   -2.687117741959
