28
0 1 
 C    2.924319801727   -2.792050890746   -2.505675220257
 C   -0.176680198273   -1.534050890746   -0.791675220257
 C    0.844319801727   -1.360050890746   -1.761675220257
 C    1.713319801727   -2.487050890746   -1.663675220257
 C    1.212319801727   -3.262050890746   -0.684675220257
 C   -1.177680198273   -0.602050890746   -0.592675220257
 C   -1.164680198273    0.527949109254   -1.425675220257
 C   -0.150680198273    0.719949109254   -2.364675220257
 C    0.830319801727   -0.229050890746   -2.576675220257
 N    0.095319801727   -2.707050890746   -0.159675220257
 H   -1.942680198273   -0.752050890746    0.155324779743
 H   -1.940680198273    1.274949109254   -1.319675220257
 H   -0.384680198273   -3.105050890746    0.653324779743
 H   -0.178680198273    1.592949109254   -2.989675220257
 H    1.651319801727   -4.196050890746   -0.352675220257
 H    1.577319801727   -0.089050890746   -3.343675220257
 H    2.690319801727   -2.503050890746   -3.524675220257
 H    3.075319801727   -3.871050890746   -2.508675220257
 H    3.870399801727   -2.332301890746   -2.183851220257
 C   -1.187680198273    2.322949109254    1.709324779743
 C    0.007319801727    3.226949109254    4.061324779743
 S   -1.613680198273    3.171949109254    3.248324779743
 H   -0.622680198273    1.416949109254    1.929324779743
 H   -2.100680198273    2.044949109254    1.185324779743
 H   -0.600680198273    2.976949109254    1.065324779743
 H    0.371319801727    2.201949109254    4.144324779743
 H   -0.119680198273    3.613949109254    5.073324779743
 H    0.770299801727    3.825503909254    3.542094779743
