13
1 1 
 C   -1.829257845823    0.744386390557    0.170895698057
 C    0.446742154177   -0.188613609443   -0.029104301943
 N   -0.545257845823    0.280386390557    0.709895698057
 N    1.565742154177   -0.581613609443    0.541895698057
 N    0.320742154177   -0.269613609443   -1.340104301943
 H   -0.360257845823    0.383386390557    1.703895698057
 H   -2.235257845823   -0.005613609443   -0.514104301943
 H   -1.681257845823    1.676386390557   -0.379104301943
 H    1.763742154177   -0.265613609443    1.497895698057
 H    2.348742154177   -0.843613609443   -0.031104301943
 H   -0.511257845823    0.071386390557   -1.791104301943
 H    1.075742154177   -0.619613609443   -1.909104301943
 H   -2.574287845823    0.917266390557    0.961494698057
