22
-1 1 
 C    1.497400096640    2.971792036420   -1.834964728146
 C    0.676400096640    2.171792036420   -0.818964728146
 O    0.989400096640    2.228792036420    0.392035271854
 O   -0.282599903360    1.483792036420   -1.234964728146
 H    0.911400096640    3.086792036420   -2.749964728146
 H    2.391400096640    2.402792036420   -2.097964728146
 H    1.782661096640    3.964472036420   -1.456524728146
 C    1.961400096640   -1.250207963580    0.854035271854
 C   -0.076599903360   -1.546207963580   -0.592964728146
 C    0.471400096640   -1.351207963580    0.672035271854
 C   -1.456599903360   -1.639207963580   -0.760964728146
 C   -0.379599903360   -1.263207963580    1.773035271854
 C   -2.297599903360   -1.548207963580    0.341035271854
 C   -1.758599903360   -1.362207963580    1.609035271854
 H    0.566400096640   -1.617207963580   -1.459964728146
 H   -1.873599903360   -1.782207963580   -1.749964728146
 H    2.194400096640   -0.249207963580    1.220035271854
 H    2.433400096640   -1.374207963580   -0.115964728146
 H    0.022400096640   -1.100207963580    2.763035271854
 H   -3.370599903360   -1.620207963580    0.212035271854
 H   -2.412599903360   -1.288207963580    2.469035271854
 H    2.359159096640   -1.990337963580    1.563955271854
