20
0 1 
 C   -0.101015046429    2.462602590345    1.315665454308
 C   -1.628015046429    0.742602590345    0.338665454308
 N   -1.786015046429   -0.306397409655   -0.452334545692
 N   -0.426015046429    1.302602590345    0.465665454308
 N   -2.676015046428    1.212602590345    0.997665454308
 H   -0.968015046429   -0.664397409655   -0.949334545692
 H   -2.704015046429   -0.661397409655   -0.662334545692
 H    0.357984953571    0.822602590345    0.021665454308
 H   -2.576015046429    2.038602590345    1.563665454308
 H   -3.587015046428    0.800602590345    0.876665454308
 H   -0.890015046429    2.667602590345    2.040665454308
 H    0.017984953571    3.345602590345    0.684665454308
 H    0.833904953571    2.298162590345    1.871465454308
 C    2.375984953571   -2.545397409655   -0.253334545692
 C    1.622984953571   -1.297397409655   -0.696334545692
 O    0.757984953571   -1.366397409655   -1.596334545692
 O    1.928984953571   -0.222397409655   -0.135334545692
 H    2.415984953571   -2.567397409655    0.837665454308
 H    3.399984953571   -2.473397409655   -0.623334545692
 H    1.943494953571   -3.489537409655   -0.616034545692
