11
0 1 
 C    0.021864477364   -0.221132895481   -0.510808997615
 C    0.911864477364    0.938867104519   -0.062808997615
 C   -0.923135522636   -0.737132895481    0.549191002385
 H   -0.607135522636    0.150867104519   -1.319808997615
 H    0.609864477364   -1.043132895481   -0.916808997615
 H    0.292864477364    1.669867104519    0.459191002385
 H   -1.368135522636    0.086867104519    1.108191002385
 H   -1.721135522636   -1.304132895481    0.069191002385
 H   -0.407135522636   -1.417132895481    1.218191002385
 H    1.730454477364    0.631357104519    0.604531002385
 H    1.344224477364    1.456417104519   -0.931828997615
