11
0 1 
 C    0.024866599319   -0.558885888644   -0.079593238722
 C   -1.194133400681    0.285114111356   -0.478593238722
 C    1.166866599319    0.239114111356    0.552406761278
 H   -0.307133400681   -1.309885888644    0.636406761278
 H    0.430866599319   -1.072885888644   -0.952593238722
 H   -0.849133400681    1.126114111356   -1.080593238722
 H    0.786866599319    0.766114111356    1.426406761278
 H   -1.707054400681    0.664004111356    0.417707761278
 H   -1.860782400681   -0.280745888644   -1.145962238722
 H    1.937740599319   -0.464185888644    0.900425761278
 H    1.597208599319    0.984134111356   -0.132980238722
