15
0 1 
 C   -0.144798441035   -2.358203345006    0.677101709336
 C   -0.303798441035   -0.535203345006   -1.062898290664
 C   -0.045798441035   -0.910203345006    0.257101709336
 C   -0.229798441035    0.806796654994   -1.446898290664
 C    0.285201558965    0.081796654994    1.190101709336
 C    0.105201558965    1.786796654994   -0.510898290664
 C    0.364201558965    1.423796654994    0.809101709336
 H   -0.567798441035   -1.288203345006   -1.789898290664
 H   -0.434798441035    1.089796654994   -2.470898290664
 H   -0.178798441035   -3.001203345006   -0.203898290664
 H   -1.088798441035   -2.476203345006    1.211101709336
 H    0.456201558965   -0.163203345006    2.227101709336
 H    0.162201558965    2.825796654994   -0.808898290664
 H    0.616201558965    2.180796654994    1.540101709336
 H    0.673491558965   -2.686956345006    1.334611709336
