9
0 1 
 C    0.152470263509    0.418062779685   -1.431434959927
 C   -0.003529736491    0.029062779685    0.078565040073
 O   -0.056529736491    0.902062779685    0.960565040073
 N   -0.081529736491   -1.271937220315    0.377565040073
 H   -0.611529736491    1.161062779685   -1.663434959927
 H   -0.029529736491   -0.453937220315   -2.061434959927
 H   -0.188529736491   -1.536937220315    1.346565040073
 H   -0.059529736491   -1.971937220315   -0.348434959927
 H    1.145680263509    0.834251779685   -1.655754959927
