18
0 1 
 C    1.890451268652   -0.740407821449   -0.239836650272
 C    2.541451268652   -0.189407821449   -1.521836650272
 C    0.486451268652   -0.247407821449    0.038163349728
 C    0.260451268652    0.743592178551    0.998163349728
 C   -0.609548731348   -0.828407821449   -0.607836650272
 C   -1.039548731348    1.166592178551    1.287163349728
 C   -1.908548731348   -0.411407821449   -0.328836650272
 C   -2.130548731348    0.590592178551    0.623163349728
 H    1.845451268652   -1.827407821449   -0.296836650272
 H    2.532451268652   -0.496407821449    0.608163349728
 H    2.803451268652    0.856592178551   -1.365836650272
 H    1.094451268652    1.190592178551    1.520163349728
 H   -0.453548731348   -1.612407821449   -1.330836650272
 H   -1.210548731348    1.939592178551    2.022163349728
 H   -2.735548731348   -0.870407821449   -0.843836650272
 H   -3.138548731348    0.905592178551    0.843163349728
 H    1.880202268652   -0.301496821449   -2.393726650272
 H    3.447405268652   -0.781287821449   -1.719126650272
