24
0 1 
 C   -0.845791866193    0.514095369263   -3.581739853230
 C    1.040208133807    0.345095369263    0.345260146770
 C    0.148208133807    1.376095369263    0.007260146770
 C    1.324208133807   -0.646904630737   -0.603739853230
 C   -0.465791866193    1.406095369263   -1.257739853230
 C    0.709208133807   -0.595904630737   -1.888739853230
 C   -0.177791866193    0.440095369263   -2.221739853230
 O    1.552208133807    0.306095369263    1.624260146770
 H   -0.093791866193    2.141095369263    0.731260146770
 H    1.252208133807    1.046095369263    2.158260146770
 H    1.995208133807   -1.454904630737   -0.347739853230
 H   -1.152791866193    2.209095369263   -1.488739853230
 H    0.921208133807   -1.376904630737   -2.606739853230
 H   -1.680791866193    1.212095369263   -3.514739853230
 H   -1.273791866193   -0.461904630737   -3.816739853230
 H   -0.190231866193    0.841155369263   -4.402270853230
 C   -1.636791866193   -0.767904630737    2.880260146770
 C   -1.393791866193   -2.094904630737    3.632260146770
 H   -0.810791866193   -0.089904630737    3.074260146770
 H   -1.677791866193   -0.953904630737    1.807260146770
 H   -2.571791866193   -0.326904630737    3.207260146770
 H   -0.344791866193   -2.351904630737    3.478260146770
 H   -1.576391866193   -2.060804630737    4.716460146770
 H   -1.973761866193   -2.942904630737    3.239160146770
