9
0 1 
 C    0.358516003899   -1.178139065229   -0.761757902101
 C   -0.071483996101    0.031860934771    0.032242097899
 O   -1.239483996101    0.221860934771    0.329242097899
 N    0.885516003899    0.875860934771    0.378242097899
 H    1.242516003899   -1.607139065229   -0.287757902101
 H    0.637516003899   -0.844139065229   -1.762757902101
 H    0.638516003899    1.679860934771    0.937242097899
 H    1.849516003899    0.683860934771    0.147242097899
 H   -0.417863996101   -1.954519065229   -0.828487902101
