16
0 1 
 C   -1.405195989284   -0.447824904306    0.809148888153
 C   -2.750195989284   -0.622824904306    0.125148888153
 H   -1.185195989284    0.605175095694    0.963148888153
 H   -1.418195989284   -0.944824904306    1.779148888153
 H   -0.619195989284   -0.888824904306    0.196148888153
 H   -3.523195989284   -0.227824904306    0.785148888153
 H   -2.773759989284   -0.079424904306   -0.830971111847
 H   -2.949676989284   -1.690804904306   -0.046971111847
 C    1.668804010716    1.159175095694   -0.626851111847
 C    2.489804010716   -0.090824904306   -0.313851111847
 H    0.878804010716    0.936175095694   -1.342851111847
 H    1.196804010716    1.518175095694    0.287148888153
 H    2.311804010716    1.948175095694   -1.017851111847
 H    1.827804010716   -0.878824904306    0.040148888153
 H    3.012881010716   -0.411834904306   -1.226731111847
 H    3.202831010716    0.142045095694    0.490738888153
