11
0 1 
 C   -0.190342697116    0.351268228575   -0.358318658680
 C   -0.811342697116    0.236268228575    1.041681341320
 C    0.989657302884   -0.568731771425   -0.701318658680
 H   -0.977342697116    0.140268228575   -1.080318658680
 H    0.128657302884    1.382268228575   -0.510318658680
 H   -0.038342697116    0.484268228575    1.768681341320
 H    0.648657302884   -1.602731771425   -0.649318658680
 H   -1.172903697116   -0.786021771425    1.226591341320
 H   -1.599739697116    0.991668228575    1.175113341320
 H    1.335754302884   -0.383091771425   -1.728817658680
 H    1.818476302884   -0.450531771425    0.012186341320
