30
1 1 
 C    0.282260145067   -1.646948192322   -2.367052716534
 C   -1.192739854933   -0.751948192322   -0.444052716534
 C   -0.008739854933   -1.208948192322   -0.962052716534
 C    0.239260145067   -0.770948192322    1.278947283466
 C    0.919260145067   -1.245948192322    0.124947283466
 C    0.856260145067   -0.686948192322    2.517947283466
 C    2.268260145067   -1.615948192322    0.237947283466
 C    2.190260145067   -1.058948192322    2.603947283466
 C    2.891260145067   -1.529948192322    1.476947283466
 N   -1.042739854933   -0.485948192322    0.892947283466
 H   -2.123739854933   -0.659948192322   -0.991052716534
 H   -1.800739854933   -0.235948192322    1.517947283466
 H    0.058260145067   -2.709948192322   -2.462052716534
 H    1.351260145067   -1.517948192322   -2.540052716534
 H    0.315260145067   -0.335948192322    3.385947283466
 H    2.811260145067   -1.962948192322   -0.628052716534
 H    2.698260145067   -1.001948192322    3.559947283466
 H    3.928260145067   -1.823948192322    1.577947283466
 H   -0.265214854933   -1.086472192322   -3.139152716534
 C   -1.731739854933    2.675051807678   -1.673052716534
 C   -1.975739854933    3.929051807678   -2.495052716534
 N   -2.336739854933    2.812051807678   -0.319052716534
 H   -2.178739854933    1.821051807678   -2.193052716534
 H   -0.651739854933    2.502051807678   -1.596052716534
 H   -1.321739854933    4.735051807678   -2.153052716534
 H   -3.012739854933    4.251051807678   -2.368052716534
 H   -3.344739854933    2.916051807678   -0.367052716534
 H   -2.133739854933    2.008051807678    0.260947283466
 H   -1.969739854933    3.626051807678    0.162947283466
 H   -1.816918854933    3.740631807678   -3.567092716534
