13
1 1 
 C   -0.685399675490   -1.599770757254   -0.998649466623
 C    0.168600324510    0.411229242746    0.234350533377
 N   -0.500399675490   -0.169770757254   -0.725649466623
 N    0.745600324510   -0.377770757254    1.145350533377
 N    0.251600324510    1.732229242746    0.303350533377
 H   -0.947399675490    0.456229242746   -1.379649466623
 H    0.658600324510   -1.375770757254    1.062350533377
 H    1.240600324510    0.021229242746    1.926350533377
 H   -0.202399675490    2.309229242746   -0.386649466623
 H    0.744600324510    2.168229242746    1.066350533377
 H   -1.638399675490   -1.734770757254   -1.515649466623
 H   -0.727399675490   -2.178770757254   -0.074649466623
 H    0.122512324510   -1.974310757254   -1.644409466623
