8
0 1 
 C   -0.556432810279   -0.492719485227    0.176109542299
 C    0.557567189721    0.494280514773   -0.170890457701
 H   -1.466432810279    0.024280514773    0.480109542299
 H   -0.800432810279   -1.076719485227   -0.712890457701
 H   -0.236432810279   -1.178719485227    0.958109542299
 H    0.208567189721    1.188280514773   -0.911890457701
 H    0.861227189721    1.065780514773    0.718589542299
 H    1.419997189721   -0.041489485227   -0.594170457701
