28
1 1 
 C   -1.010930587305   -0.606270715599   -3.262897897177
 C    0.810069412695   -1.288270715599   -1.720897897177
 N   -0.404930587305   -1.457270715599   -2.229897897177
 N    1.292069412695   -2.182270715599   -0.882897897177
 N    1.567069412695   -0.265270715599   -2.089897897177
 H   -0.926930587305   -2.266270715599   -1.927897897177
 H    0.737069412695   -2.975270715599   -0.602897897177
 H    2.228069412695   -2.092270715599   -0.525897897177
 H    1.206069412695    0.448729284401   -2.704897897177
 H    2.494069412695   -0.161270715599   -1.709897897177
 H   -1.773930587305   -1.179270715599   -3.796897897177
 H   -0.254930587305   -0.330270715599   -3.999897897177
 H   -1.471260587305    0.306459284401   -2.856677897177
 C   -0.203930587305    3.371729284401    1.704102102823
 C   -0.487930587305   -0.917270715599    1.586102102823
 C   -1.649930587305   -0.148270715599    1.645102102823
 C    0.757069412695   -0.299270715599    1.597102102823
 C   -1.561930587305    1.243729284401    1.677102102823
 C    0.837069412695    1.087729284401    1.605102102823
 C   -0.314930587305    1.870729284401    1.653102102823
 H   -0.562930587305   -1.983270715599    1.466102102823
 H   -2.618930587305   -0.630270715599    1.646102102823
 H    1.658069412695   -0.896270715599    1.556102102823
 H   -2.461930587305    1.831729284401    1.738102102823
 H    1.807069412695    1.559729284401    1.539102102823
 H    0.842069412695    3.681729284401    1.667102102823
 H   -0.589930587305    3.674729284401    2.679102102823
 H   -0.770080587305    3.893389284401    0.918385102823
