15
0 1 
 C    2.043760266022    1.298162003649   -0.365326885711
 C   -1.559239733978   -0.983837996351    0.281673114289
 C   -1.408239733978   -0.207837996351   -0.869326885711
 C   -0.526239733978   -1.025837996351    1.215673114289
 C   -0.241239733978    0.529162003649   -1.075326885711
 C    0.644760266022   -0.280837996351    1.000673114289
 C    0.792760266022    0.495162003649   -0.145326885711
 H   -2.468239733978   -1.545837996351    0.437673114289
 H   -2.209239733978   -0.159837996351   -1.592326885711
 H   -0.627239733978   -1.619837996351    2.111673114289
 H   -0.141239733978    1.132162003649   -1.962326885711
 H    1.434760266022   -0.311837996351    1.738673114289
 H    2.459760266022    1.596162003649    0.598673114289
 H    1.754760266022    2.216162003649   -0.883326885711
 H    2.817180266022    0.786872003649   -0.957273885711
