16
0 1 
 C   -1.229373648844    0.597364991755   -2.615446864765
 C   -0.935373648844    1.026364991755   -0.124446864765
 C   -0.571373648844    0.318364991755   -1.283446864765
 C   -0.393373648844    0.724364991755    1.116553135235
 C    0.378626351156   -0.703635008245   -1.139446864765
 C    0.558626351156   -0.286635008245    1.228553135235
 C    0.958626351156   -1.001635008245    0.095553135235
 O    1.081626351156   -0.554635008245    2.451553135235
 H   -1.675373648844    1.812364991755   -0.199446864765
 H   -0.684373648844    1.280364991755    1.994553135235
 H   -2.304373648844    0.634364991755   -2.442446864765
 H   -1.069373648844   -0.260635008245   -3.256446864765
 H    0.679626351156   -1.269635008245   -2.012446864765
 H    1.710626351156   -1.771635008245    0.170553135235
 H    1.830626351156   -1.162635008245    2.422553135235
 H   -0.965130648844    1.508094991755   -3.172886864765
