16
0 1 
 C   -0.608250098788    2.497531364654   -1.458764885294
 C   -1.019250098788   -0.883468635346    0.298235114706
 C   -1.313250098788    0.319531364654   -0.336764885294
 C    0.298749901212   -1.175468635346    0.650235114706
 C   -0.281250098788    1.230531364654   -0.678764885294
 C    1.358749901212   -0.270468635346    0.355235114706
 C    1.057749901212    0.937531364654   -0.292764885294
 O    0.525749901212   -2.351468635346    1.311235114706
 H   -1.815250098788   -1.573468635346    0.540235114706
 H   -2.336250098788    0.542531364654   -0.610764885294
 H   -0.281250098788   -2.858468635346    1.442235114706
 H    2.370749901212   -0.506468635346    0.647235114706
 H   -0.020250098788    3.329531364654   -1.067764885294
 H   -1.656250098788    2.733531364654   -1.274764885294
 H    1.849749901212    1.635531364654   -0.524764885294
 H   -0.421488098788    2.395596364654   -2.537990885294
