18
0 1 
 C   -0.888169462677   -0.933637440114   -0.620633232506
 C   -0.251169462677   -0.390637440114   -1.905633232506
 C    0.148830537323   -1.371637440114    0.394366767494
 O    0.368830537323   -2.559637440114    0.584366767494
 N    0.803830537323   -0.401637440114    1.032366767494
 H   -1.563169462677   -0.204637440114   -0.177633232506
 H   -1.491169462677   -1.805637440114   -0.878633232506
 H    0.329830537323    0.501362559886   -1.689633232506
 H    1.435830537323   -0.667637440114    1.780366767494
 H    0.627830537323    0.567362559886    0.801366767494
 H   -1.046319462677   -0.147547440114   -2.625808232506
 H    0.468640537323   -1.120617440114   -2.304396232506
 C    0.127830537323    3.190362559886    0.401366767494
 O   -0.345169462677    1.927362559886    0.085366767494
 H   -0.807169462677    2.027362559886   -0.778633232506
 H    0.410830537323    3.200362559886    1.453366767494
 H   -0.651169462677    3.936362559886    0.252366767494
 H    1.013570537323    3.441082559886   -0.200793232506
