8
0 1 
 C   -0.151253043205    0.133785551770    0.740099529642
 C    0.155746956795   -0.131214448230   -0.737900470358
 H    0.694746956795    0.626785551770    1.221099529642
 H   -1.033253043205    0.769785551770    0.822099529642
 H   -0.349253043205   -0.812214448230    1.247099529642
 H   -0.717253043205   -0.613214448230   -1.178900470358
 H    1.018886956795   -0.804479448230   -0.846076470358
 H    0.332616956795    0.802723551770   -1.291505470358
