8
0 1 
 C   -0.555830133466    0.177081326133   -0.487117805044
 C    0.558169866534   -0.184918673867    0.479882194956
 H   -1.307830133466   -0.607918673867   -0.503117805044
 H   -1.035830133466    1.095081326133   -0.146117805044
 H   -0.169830133466    0.348081326133   -1.491117805044
 H    0.110169866534   -0.451918673867    1.431882194956
 H    1.157169866534    0.708081326133    0.650882194956
 H    1.218291866534   -0.998088673867    0.143742194956
