23
0 1 
 C   -2.790842516328    0.874776431930   -0.484533123158
 C   -0.641842516328    0.794776431930    0.833466876842
 C   -1.634842516328    0.136776431930    0.121466876842
 C    0.430157483672    0.071776431930    1.371466876842
 C    0.436157483672   -1.341223568070    1.303466876842
 C   -1.608842516328   -1.245223568070    0.021466876842
 C   -0.587842516328   -1.981223568070    0.587466876842
 H   -0.666842516328    1.871776431930    0.922466876842
 H    1.234157483672    0.580776431930    1.879466876842
 H   -3.002842516328    1.746776431930    0.133466876842
 H   -3.669842516328    0.234776431930   -0.439533123158
 H    1.240157483672   -1.913223568070    1.746466876842
 H   -2.394842516328   -1.761223568070   -0.509533123158
 H   -0.582842516328   -3.058223568070    0.487466876842
 H   -2.618235516328    1.214166431930   -1.516533123158
 C    2.216157483672    0.813776431930   -1.600533123158
 C    3.599157483672    1.407776431930   -1.580533123158
 H    2.012157483672    0.352776431930   -2.558533123158
 H    2.137157483672    0.054776431930   -0.824533123158
 H    1.470157483672    1.582776431930   -1.398533123158
 H    3.749157483672    1.897776431930   -0.620533123158
 H    3.658977483672    2.132866431930   -2.405559123158
 H    4.370237483672    0.635966431930   -1.721060123158
