15
0 1 
 C    2.174296929536   -1.099261825537    0.206017326580
 C   -1.646703070464    0.827738174463   -0.154982673420
 C   -0.779703070464    1.191738174463    0.865017326580
 C   -1.276703070464   -0.157261825537   -1.058982673420
 C    0.456296929536    0.571738174463    0.981017326580
 C   -0.040703070464   -0.778261825537   -0.938982673420
 C    0.834296929536   -0.419261825537    0.082017326580
 H   -2.612703070464    1.305738174463   -0.239982673420
 H   -1.069703070464    1.958738174463    1.571017326580
 H   -1.944703070464   -0.440261825537   -1.857982673420
 H    1.127296929536    0.875738174463    1.773017326580
 H    0.244296929536   -1.543261825537   -1.648982673420
 H    2.924296929536   -0.380261825537    0.534017326580
 H    2.482296929536   -1.439261825537   -0.783982673420
 H    2.169991929536   -1.970393825537    0.877664326580
