8
0 1 
 C   -0.179388232458   -0.690951470943    0.276759187078
 C    0.186611767542    0.690048529057   -0.280240812922
 H    0.631611767542   -1.397951470943    0.093759187078
 H   -0.357388232458   -0.625951470943    1.350759187078
 H   -1.087388232458   -1.052951470943   -0.208240812922
 H   -0.641388232458    1.360048529057   -0.043240812922
 H    0.292401767542    0.629268529057   -1.373440812922
 H    1.076141767542    1.098288529057    0.221859187078
