23
0 1 
 C    0.305737031025   -2.022823630217    1.897010828802
 C    0.146737031025   -0.199823630217    0.157010828802
 C    0.404737031025   -0.574823630217    1.477010828802
 C    0.220737031025    1.142176369783   -0.226989171198
 C    0.735737031025    0.417176369783    2.410010828802
 C    0.555737031025    2.122176369783    0.709010828802
 C    0.814737031025    1.759176369783    2.029010828802
 H   -0.117262968975   -0.952823630217   -0.569989171198
 H    0.015737031025    1.425176369783   -1.250989171198
 H    0.271737031025   -2.665823630217    1.016010828802
 H   -0.638262968975   -2.140823630217    2.431010828802
 H    0.906737031025    0.172176369783    3.447010828802
 H    0.612737031025    3.161176369783    0.411010828802
 H    1.066737031025    2.516176369783    2.760010828802
 H    1.124027031025   -2.351576630217    2.554520828802
 C   -1.250262968975   -0.385823630217   -3.345989171198
 C   -1.514262968975   -1.670823630217   -4.130989171198
 H   -2.014262968975   -0.219823630217   -2.589989171198
 H   -0.282262968975   -0.455823630217   -2.850989171198
 H   -1.235262968975    0.468176369783   -4.024989171198
 H   -1.538262968975   -2.509823630217   -3.434989171198
 H   -2.475072968975   -1.600972630217   -4.661999171198
 H   -0.693562968975   -1.829785630217   -4.845959171198
