11
0 1 
 C    0.058239674474   -0.542286641635    0.127662485117
 C   -0.905760325526    0.414713358365    0.897662485117
 C    0.859239674474    0.102713358365   -1.022337514883
 H    0.750239674474   -0.987286641635    0.837662485117
 H   -0.549760325526   -1.353286641635   -0.273337514883
 H   -1.394760325526   -0.173286641635    1.676662485117
 H    0.235239674474    0.802713358365   -1.571337514883
 H   -1.681444525526    0.814993358365    0.228267485117
 H   -0.398913925526    1.249990358365    1.403052485117
 H    1.733528674474    0.634327358365   -0.618598514883
 H    1.166334674474   -0.692161641635   -1.717942514883
