11
0 1 
 C   -0.282518191806   -0.472778794702    0.165347407590
 C    1.225481808194   -0.409778794702   -0.052652592410
 C   -0.965518191806    0.855221205298   -0.112652592410
 H   -0.719518191806   -1.249778794702   -0.461652592410
 H   -0.449518191806   -0.737778794702    1.207347407590
 H    1.639481808194   -1.391778794702    0.187347407590
 H    1.641481808194    0.303221205298    0.662347407590
 H   -0.429518191806    1.654221205298    0.405347407590
 H   -0.958518191806    1.055221205298   -1.185652592410
 H    1.547754808194   -0.131288794702   -1.066843592410
 H   -2.003092191806    0.823451205298    0.251256407590
