8
0 1 
 C   -0.586580399394   -0.074502677588    0.471434928215
 C    0.586419600606    0.075497322412   -0.477565071785
 H   -0.501580399394    0.638497322412    1.289434928215
 H   -1.517580399394    0.076497322412   -0.073565071785
 H   -0.603580399394   -1.055502677588    0.924434928215
 H    0.520419600606    1.035497322412   -0.993565071785
 H    0.605102200606   -0.745820677588   -1.209062071785
 H    1.499134000606    0.038988322412    0.135312928215
