7
-1 1 
 C    0.210203267288   -0.102663655595    1.414141690614
 C   -0.020796732712    0.001336344405   -0.074858309386
 O    0.292203267288    1.076336344405   -0.633858309386
 O   -0.488796732712   -0.976663655595   -0.709858309386
 H    0.474203267288    0.875336344405    1.823141690614
 H    1.055203267288   -0.764663655595    1.596141690614
 H   -0.664556732712   -0.486063655595    1.959856690614
