6
0 1 
 C   -0.401104563863    0.607452195673    0.061870676315
 O    0.345895436137   -0.598547804327   -0.019129323685
 H    1.084895436137   -0.476547804327   -0.675129323685
 H   -1.465104563863    0.371452195673    0.005870676315
 H   -0.191454563863    1.108312195673    1.018520676315
 H   -0.142064563863    1.263342195673   -0.782349323685
