7
-1 1 
 C    0.088263983701   -0.675750068861   -1.264227650354
 C   -0.009736016299    0.028249931139    0.076772349646
 O   -1.089736016299    0.004249931139    0.702772349646
 O    1.007263983701    0.644249931139    0.489772349646
 H    0.097263983701   -1.749750068861   -1.109227650354
 H    1.029263983701   -0.418750068861   -1.755227650354
 H   -0.752656016299   -0.413990068861   -1.923267650354
