13
1 1 
 C   -0.595160868855   -1.561696842685   -1.071022371656
 C    0.155839131145    0.381303157315    0.259977628344
 N    0.365839131145   -0.526696842685   -0.678022371656
 N   -0.986160868855    0.402303157315    0.922977628344
 N    1.079839131145    1.283303157315    0.520977628344
 H    1.308839131145   -0.570696842685   -1.071022371656
 H   -1.676160868855   -0.309696842685    0.761977628344
 H   -1.145160868855    1.093303157315    1.639977628344
 H    1.932839131145    1.289303157315   -0.045022371656
 H    0.945839131145    1.975303157315    1.238977628344
 H   -1.621160868855   -1.274696842685   -0.839022371656
 H   -0.362160868855   -2.477696842685   -0.522022371656
 H   -0.536640868855   -1.772670842685   -2.149012371656
