16
0 1 
 C    0.982102929563   -2.720347079936   -0.439229165087
 C   -0.446897070437    1.284652920064    0.185770834913
 C   -0.253897070437    0.423652920064    1.267770834913
 C   -0.202897070437    0.822652920064   -1.108229165087
 C    0.201102929563   -0.865347079936    1.063770834913
 C    0.279102929563   -0.464347079936   -1.295229165087
 C    0.482102929563   -1.323347079936   -0.217229165087
 O   -0.933897070437    2.544652920064    0.418770834913
 H   -0.444897070437    0.761652920064    2.274770834913
 H   -1.020897070437    2.727652920064    1.353770834913
 H   -0.349897070437    1.487652920064   -1.946229165087
 H    0.358102929563   -1.517347079936    1.911770834913
 H    0.497102929563   -0.804347079936   -2.300229165087
 H    1.866102929563   -2.866347079936    0.182770834913
 H    1.286102929563   -2.841347079936   -1.480229165087
 H    0.238222929563   -3.488737079936   -0.181898165087
