8
0 1 
 C   -0.073599065804   -0.617952354519   -0.443044772390
 C    0.070400934196    0.615047645481    0.443955227610
 H   -1.126599065804   -0.819952354519   -0.644044772390
 H    0.419400934196   -0.434952354519   -1.398044772390
 H    0.390400934196   -1.483952354519    0.033955227610
 H   -0.496599065804    1.433047645481    0.006955227610
 H   -0.278369065804    0.438857645481    1.472215227610
 H    1.129844934196    0.901537645481    0.518123227610
