8
0 1 
 C   -0.112628100467    0.533121101749    0.535221923213
 C    0.117371899533   -0.535878898251   -0.532778076787
 H    0.604371899533    1.347121101749    0.424221923213
 H   -1.114628100467    0.946121101749    0.421221923213
 H   -0.035628100467    0.109121101749    1.536221923213
 H   -0.012628100467   -0.077878898251   -1.512778076787
 H    1.132196899533   -0.955756898251   -0.470868076787
 H   -0.630168100467   -1.335890898251   -0.427118076787
