7
-1 1 
 C    0.652392398453   -1.275306849074    0.047388650065
 C   -0.037607601547    0.075693150926   -0.017611349935
 O    0.480392398453    0.999693150926    0.628388650065
 O   -1.096607601547    0.205693150926   -0.669611349935
 H    0.463392398453   -1.674306849074    1.045388650065
 H    1.728392398453   -1.179306849074   -0.053611349935
 H    0.267860398453   -1.993146849074   -0.692096349935
