13
1 1 
 C   -1.659663222525   -0.034962866982    1.089527162507
 C    0.413336777475    0.005037133018   -0.260472837493
 N    1.711336777475    0.204037133018   -0.324472837493
 N   -0.217663222525    0.159037133018    0.891527162507
 N   -0.252663222525   -0.340962866982   -1.344472837493
 H    2.226336777475    0.462037133018    0.510527162507
 H    2.194336777475    0.105037133018   -1.206472837493
 H    0.319336777475    0.507037133018    1.672527162507
 H   -1.252663222525   -0.443962866982   -1.315472837493
 H    0.230336777475   -0.412962866982   -2.225472837493
 H   -2.217663222525   -0.179962866982    0.163527162507
 H   -2.049663222525    0.877037133018    1.546527162507
 H   -1.853594222525   -0.865162866982    1.784627162507
