9
0 1 
 C    1.015328151017    0.397527834169    0.986790901140
 C   -1.082671848983   -1.043472165831   -0.053209098860
 S    0.031328151017    0.328527834169   -0.470209098860
 H    1.793328151017   -0.335472165831    0.866790901140
 H    1.475328151017    1.377527834169    1.021790901140
 H    0.389328151017    0.229527834169    1.846790901140
 H   -1.721671848983   -0.734472165831    0.770790901140
 H   -0.428671848983   -1.877472165831    0.189790901140
 H   -1.699639848983   -1.390652165831   -0.895119098860
