16
1 1 
 C    1.133393545014   -1.109157038668   -0.452778875129
 C    1.024393545014   -1.812157038668    0.876221124871
 C   -0.521606454986    0.705842961332   -0.122778875129
 N   -0.098606454986   -0.382157038668   -0.761778875129
 N    0.170393545014    1.229842961332    0.879221124871
 N   -1.650606454986    1.273842961332   -0.492778875129
 H    1.980393545014   -0.420157038668   -0.432778875129
 H    1.330393545014   -1.848157038668   -1.230778875129
 H    0.813393545014   -1.111157038668    1.681221124871
 H    1.994393545014   -2.263157038668    1.077221124871
 H   -0.655606454986   -0.747157038668   -1.524778875129
 H    1.056393545014    0.833842961332    1.136221124871
 H   -0.163606454986    2.055842961332    1.351221124871
 H   -2.174606454986    0.902842961332   -1.268778875129
 H   -1.982606454986    2.098842961332   -0.019778875129
 H    0.256404845014   -2.599617038668    0.866121124871
