7
-1 1 
 C   -1.079105107256   -0.091989023611    0.961223020561
 C    0.058894892744   -0.013989023611   -0.042776979439
 O    1.252894892744   -0.070989023611    0.330223020561
 O   -0.228105107256    0.169010976389   -1.245776979439
 H   -1.708105107256   -0.957989023611    0.750223020561
 H   -1.690105107256    0.805010976389    0.845223020561
 H   -0.718479107256   -0.140839023611    1.999280020561
