6
0 1 
 C    0.243502815989    0.121406467545    0.674832322093
 O   -0.230497184011   -0.058593532455   -0.649167677907
 H   -0.319497184011   -1.010593532455   -0.824167677907
 H   -0.427497184011   -0.391593532455    1.365832322093
 H    0.248502815989    1.176406467545    0.936832322093
 H    1.257302815989   -0.289863532455    0.789152322093
