8
1 1 
 C    0.380465249761    0.689682815891   -0.071916349100
 N   -0.337534750239   -0.608317184109    0.067083650900
 H   -0.965534750239   -0.618317184109    0.865083650900
 H   -0.887534750239   -0.820317184109   -0.760916349100
 H    0.312465249761   -1.386317184109    0.185083650900
 H   -0.331534750239    1.513682815891   -0.185916349100
 H    1.003465249761    0.668682815891   -0.974916349100
 H    1.028365249761    0.882822815891    0.795793650900
