8
0 1 
 C    0.136888551571   -0.468203295155    0.563211693002
 C   -0.141111448429    0.473796704845   -0.560788306998
 H   -0.567111448429   -0.315203295155    1.382211693002
 H    0.040888551571   -1.490203295155    0.194211693002
 H    1.157888551571   -0.340203295155    0.912211693002
 H    0.664888551571    0.372796704845   -1.287788306998
 H   -0.160601448429    1.503626704845   -0.174692306998
 H   -1.085671448429    0.202586704845   -1.055009306998
