8
0 1 
 C   -0.170199908382   -0.689111922823   -0.283861824603
 C    0.169800091618    0.689888077177    0.287138175397
 H   -0.614199908382   -0.586111922823   -1.276861824603
 H    0.741800091618   -1.273111922823   -0.377861824603
 H   -0.870199908382   -1.209111922823    0.372138175397
 H    0.919800091618    1.153888077177   -0.349861824603
 H   -0.745569908382    1.299888077177    0.286408175397
 H    0.573130091618    0.605318077177    1.307028175397
