8
0 1 
 C   -0.432439428546   -0.136043056018    0.603619850150
 C    0.437560571454    0.137956943982   -0.602380149850
 H   -0.548439428546    0.765956943982    1.204619850150
 H   -1.416439428546   -0.463043056018    0.267619850150
 H   -0.007439428546   -0.933043056018    1.210619850150
 H    0.593560571454   -0.791043056018   -1.150380149850
 H    1.402710571454    0.556266943982   -0.280660149850
 H   -0.084929428546    0.842116943982   -1.266580149850
