8
0 1 
 C   -0.604753591364   -0.419878137349   -0.217493643385
 C    0.607246408636    0.421121862651    0.220506356615
 H   -1.403753591364    0.229121862651   -0.576493643385
 H   -0.327753591364   -1.101878137349   -1.017493643385
 H   -0.973753591364   -1.011878137349    0.620506356615
 H    0.810246408636    1.171121862651   -0.543493643385
 H    0.372486408636    0.923771862651    1.170366356615
 H    1.492846408636   -0.225068137349    0.310736356615
