8
0 1 
 C    0.000225539968    0.204559704181    0.730002012500
 C    0.001225539968   -0.204440295819   -0.729997987500
 H    0.884225539968    0.798559704181    0.952002012500
 H   -0.888774460032    0.796559704181    0.947002012500
 H   -0.003774460032   -0.683440295819    1.364002012500
 H   -0.920774460032   -0.752440295819   -0.934997987500
 H    0.867183539968   -0.845420295819   -0.951957987500
 H    0.044636539968    0.684759704181   -1.376097987500
