6
0 1 
 C   -0.393883756111    0.590136316743   -0.188883998453
 O    0.337116243889   -0.565863683257    0.221116001547
 H    1.089116243889   -0.676863683257   -0.392883998453
 H   -1.355883756111    0.597136316743    0.326116001547
 H    0.173470243889    1.493196316743    0.080538001547
 H   -0.567075756111    0.540546316743   -1.274031998453
