10
-1 1 
 C   -0.354864099695   -0.519581647647   -0.891094440597
 C    0.942135900305   -0.406581647647   -1.702094440597
 C   -0.235864099695    0.135418352353    0.490905559403
 O    0.815135900305   -0.041581647647    1.150905559403
 O   -1.206864099695    0.805418352353    0.925905559403
 H   -1.131864099695   -0.015581647647   -1.462094440597
 H   -0.624864099695   -1.569581647647   -0.768094440597
 H    1.785135900305   -0.722581647647   -1.089094440597
 H    1.088135900305    0.632418352353   -2.003094440597
 H    0.916315900305   -1.032051647647   -2.606594440597
