8
0 1 
 C   -0.001457205633   -0.088459454797    0.764028068636
 C    0.006542794367    0.081540545203   -0.764971931364
 H    0.256542794367    0.840540545203    1.269028068636
 H   -1.011457205633   -0.326459454797    1.084028068636
 H    0.691542794367   -0.869459454797    1.055028068636
 H   -0.716457205633    0.862540545203   -1.005971931364
 H    1.007082794367    0.406176745203   -1.086731931364
 H   -0.287807205633   -0.830956654797   -1.304141931364
