9
0 1 
 C   -0.311737537954    0.394306112101   -0.231786330151
 C   -0.244737537954   -1.044693887899   -0.767786330151
 O    0.528262462046    0.558306112101    0.892213669849
 H   -0.010737537954    1.088306112101   -1.018786330151
 H   -1.340737537954    0.618306112101    0.056213669849
 H    0.765262462046   -1.222693887899   -1.139786330151
 H    0.230262462046    1.323306112101    1.401213669849
 H   -0.960997537954   -1.156514887899   -1.595116330151
 H   -0.441107537954   -1.767376887899    0.037923669849
