9
0 1 
 C   -1.228866353148   -0.485344849134    0.602456113338
 C    0.040133646852    0.070655150866   -0.004543886662
 O    0.328133646852    1.263655150866    0.086456113338
 N    0.812133646852   -0.789344849134   -0.649543886662
 H   -0.973866353148   -1.264344849134    1.320456113338
 H   -1.791866353148   -0.931344849134   -0.206543886662
 H    1.699133646852   -0.471344849134   -1.007543886662
 H    0.570133646852   -1.769344849134   -0.664543886662
 H   -1.841286353148    0.286328150866    1.091806113338
