19
0 1 
 C   -1.550852589185    0.702063275129    1.875797340109
 C   -0.630852589185    1.666063275129    2.686797340109
 C   -0.725852589185    0.189063275129    0.719797340109
 C   -0.708852589185    0.937063275129   -0.465202659891
 C    0.053147410815   -0.958936724871    0.849797340109
 C    0.046147410815    0.530063275129   -1.556202659891
 C    0.835147410815   -1.371936724871   -0.232202659891
 C    0.814147410815   -0.619936724871   -1.417202659891
 O    1.609147410815   -1.062936724871   -2.414202659891
 H   -1.886852589185   -0.123936724871    2.504797340109
 H   -2.432852589185    1.193063275129    1.465797340109
 H   -0.010852589185    2.215063275129    1.976797340109
 H   -1.315852589185    1.832063275129   -0.538202659891
 H    0.050147410815   -1.525936724871    1.769797340109
 H    0.020147410815    1.095063275129   -2.470202659891
 H    1.444147410815   -2.261936724871   -0.143202659891
 H    2.078147410815   -1.857936724871   -2.143202659891
 H    0.003307410815    1.102713275129    3.387137340109
 H   -1.248002589185    2.419303275129    3.198417340109
