8
0 1 
 C   -0.403165176445    0.215772342096    0.601658165300
 C    0.399834823555   -0.212227657904   -0.604341834700
 H   -1.216165176445   -0.488227657904    0.749658165300
 H    0.232834823555    0.217772342096    1.486658165300
 H   -0.824165176445    1.203772342096    0.441658165300
 H    0.658834823555   -1.267227657904   -0.494341834700
 H    1.323834823555    0.346772342096   -0.599341834700
 H   -0.135520176445   -0.055067657904   -1.552336834700
