19
0 1 
 C   -1.499198918646    0.235585172327    2.525770355900
 C   -0.389198918646   -0.125414827673    0.185770355900
 C   -0.430198918646    0.407585172327    1.512770355900
 C    0.833801081354    0.295585172327   -0.401229644100
 C    0.725801081354    1.110585172327    1.681770355900
 C   -1.269198918646   -0.927414827673   -0.522229644100
 C   -0.915198918646   -1.280414827673   -1.816229644100
 C    0.283801081354   -0.847414827673   -2.388229644100
 C    1.178801081354   -0.055414827673   -1.695229644100
 N    1.484801081354    1.047585172327    0.538770355900
 H   -2.187198918646   -1.239414827673   -0.067229644100
 H   -1.577198918646   -1.903414827673   -2.405229644100
 H    0.517801081354   -1.141414827673   -3.404229644100
 H   -1.027198918646    0.250585172327    3.501770355900
 H   -1.938198918646   -0.752414827673    2.397770355900
 H    1.012801081354    1.628585172327    2.591770355900
 H    2.397801081354    1.476585172327    0.433770355900
 H    2.108801081354    0.272585172327   -2.139229644100
 H   -2.306238918646    0.983035172327    2.524330355900
