13
1 1 
 C   -1.592116175743    1.165120911889    0.107598640307
 C    0.394883824257   -0.282879088111   -0.018401359693
 N    1.615883824257   -0.563879088111    0.387598640307
 N   -0.238116175743    0.764120911889    0.484598640307
 N   -0.189116175743   -1.037879088111   -0.930401359693
 H    2.133883824257    0.123120911889    0.936598640307
 H    2.044883824257   -1.428879088111    0.114598640307
 H    0.254883824257    1.306120911889    1.180598640307
 H   -1.136116175743   -0.843879088111   -1.205401359693
 H    0.289883824257   -1.830879088111   -1.326401359693
 H   -2.313116175743    0.581120911889    0.685598640307
 H   -1.779116175743    0.994120911889   -0.954401359693
 H   -1.755486175743    2.232876911889    0.315460640307
