11
0 1 
 C   -0.066580712389    0.099131366937    0.561151141871
 C   -1.169580712389    0.507131366937   -0.420848858129
 C    1.228419287611   -0.585868633063   -0.104848858129
 H    0.268419287611    1.002131366937    1.045151141871
 H   -0.489580712389   -0.568868633063    1.315151141871
 H   -1.735580712389   -0.387868633063   -0.680848858129
 H   -0.687580712389    0.875131366937   -1.327848858129
 H    1.680419287611   -1.193868633063    0.686151141871
 H    0.875419287611   -1.294868633063   -0.859848858129
 H   -1.851140712389    1.294361366937   -0.066240858129
 H    2.031809287611    0.031021366937   -0.533803858129
