8
0 1 
 C    0.310593659849   -0.385224377501    0.579706895607
 C   -0.308406340151    0.381775622499   -0.583293104393
 H    1.082593659849   -1.069224377501    0.224706895607
 H    0.761593659849    0.315775622499    1.282706895607
 H   -0.459406340151   -0.958224377501    1.098706895607
 H   -1.022406340151    1.098775622499   -0.176293104393
 H   -0.843715340151   -0.301854377501   -1.258641104393
 H    0.455296659849    0.955815622499   -1.128486104393
