8
0 1 
 C   -0.153740600180   -0.497967235530   -0.543218920765
 C    0.152259399820    0.497032764470    0.543781079235
 H   -0.716740600180   -0.028967235530   -1.351218920765
 H    0.778259399820   -0.898967235530   -0.944218920765
 H   -0.720740600180   -1.325967235530   -0.123218920765
 H    0.630259399820   -0.006967235530    1.383781079235
 H   -0.774480600180    0.991532764470    0.870312079235
 H    0.821079399820    1.280462764470    0.157870079235
