16
0 1 
 C   -2.058435407026    0.707798688987    1.957924601935
 C    0.388564592974   -1.329201311013   -0.103075398065
 C    0.939564592974   -0.340201311013   -0.928075398065
 C   -0.577435407026   -0.977201311013    0.808924601935
 C   -1.001435407026    0.356798688987    0.938924601935
 C    0.582564592974    1.005798688987   -0.790075398065
 C   -0.406435407026    1.346798688987    0.150924601935
 O    1.899564592974   -0.731201311013   -1.804075398065
 H    0.724564592974   -2.353201311013   -0.190075398065
 H   -0.958435407026   -1.722201311013    1.474924601935
 H    1.055564592974    1.767798688987   -1.392075398065
 H    2.212564592974    0.003798688987   -2.342075398065
 H   -2.692435407026   -0.171201311013    2.077924601935
 H   -2.695435407026    1.493798688987    1.548924601935
 H   -0.700435407026    2.381798688987    0.272924601935
 H   -1.695585407026    1.028811688987    2.945494601935
