11
1 1 
 C    0.076881464645    0.277072020360    0.524609651071
 C   -0.980118535355   -0.823927979640    0.385609651071
 N    0.805881464645    0.495072020360   -0.779390348929
 H   -0.414118535355    1.203072020360    0.843609651071
 H    0.782881464645   -0.010927979640    1.311609651071
 H   -1.689118535355   -0.516927979640   -0.386390348929
 H   -1.529118535355   -0.920927979640    1.324609651071
 H    0.176881464645    0.862072020360   -1.488390348929
 H    1.547881464645    1.172072020360   -0.612390348929
 H    1.205881464645   -0.362927979640   -1.136390348929
 H   -0.523680535355   -1.792887979640    0.135029651071
