8
0 1 
 C    0.751607529799   -0.106744234173   -0.213882833184
 C   -0.746392470201    0.103255765827    0.215117166816
 H    1.067607529799   -1.123744234173    0.018117166816
 H    0.861607529799    0.098255765827   -1.276882833184
 H    1.382607529799    0.594255765827    0.334117166816
 H   -1.356392470201   -0.665744234173   -0.246882833184
 H   -0.890102470201    0.069483765827    1.305167166816
 H   -1.127422470201    1.069029765827   -0.148332833184
