11
0 1 
 C    0.403009184933    0.375319418670   -0.174871724051
 C   -0.928990815067    0.109319418670   -0.919871724051
 C    0.541009184933   -0.453680581330    1.085128275949
 H    1.223009184933    0.096319418670   -0.832871724051
 H    0.511009184933    1.431319418670    0.057128275949
 H   -0.960990815067   -0.944680581330   -1.202871724051
 H    0.341009184933   -1.503680581330    0.868128275949
 H    1.563009184933   -0.363680581330    1.457128275949
 H   -0.128990815067   -0.107680581330    1.869128275949
 H   -1.785528815067    0.312846418670   -0.260391724051
 H   -0.941456815067    0.710622418670   -1.840891724051
