8
0 1 
 C   -0.211799756201   -0.521153391825   -0.510506389221
 C    0.212200243799    0.519846608175    0.513493610779
 H   -1.261799756201   -0.780153391825   -0.373506389221
 H   -0.077799756201   -0.116153391825   -1.513506389221
 H    0.391200243799   -1.417153391825   -0.425506389221
 H    1.262200243799    0.768846608175    0.361493610779
 H    0.062320243799    0.122556608175    1.528233610779
 H   -0.380889756201    1.437616608175    0.387223610779
