12
0 1 
 C    1.171171452339   -1.851873142091    0.290811745078
 C   -1.119828547661    0.969126857909    0.400811745078
 C    0.537171452339    0.351126857909   -0.908188254922
 C    0.408171452339   -0.578873142091    0.062811745078
 N   -0.410828547661    1.312126857909   -0.655188254922
 N   -0.651828547661   -0.185873142091    0.856811745078
 H   -0.535828547661    2.181126857909   -1.170188254922
 H   -1.937828547661    1.541126857909    0.825811745078
 H    1.260171452339    0.342126857909   -1.714188254922
 H    1.386171452339   -1.947873142091    1.353811745078
 H    2.116171452339   -1.796873142091   -0.249188254922
 H    0.608705452339   -2.745753142091   -0.016775254922
