11
0 1 
 C    0.470686367273   -0.030988693750    0.348609080212
 C    0.264686367273    1.069011306250   -0.704390919788
 C   -0.702313632727   -1.041988693750    0.382609080212
 H    1.403686367273   -0.558988693750    0.156609080212
 H    0.551686367273    0.449011306250    1.326609080212
 H   -0.596313632727    1.679011306250   -0.462390919788
 H    0.066686367273    0.586011306250   -1.662390919788
 H   -1.642313632727   -0.479988693750    0.410609080212
 H   -0.697313632727   -1.644988693750   -0.534390919788
 H    1.156866367273    1.700468306250   -0.827970919788
 H   -0.636613632727   -1.683312693750    1.273889080212
