13
1 1 
 C   -0.461378030330    0.195943352302    1.893672939043
 C    0.125621969670   -0.056056647698   -0.462327060957
 N    0.127621969670   -0.512056647698    0.771672939043
 N   -0.418378030330    1.118943352302   -0.723327060957
 N    0.639621969670   -0.780056647698   -1.433327060957
 H    0.587621969670   -1.399056647698    0.962672939043
 H   -1.546378030330    0.082943352302    1.838672939043
 H   -0.207378030330    1.254943352302    1.803672939043
 H   -0.839378030330    1.657943352302    0.019672939043
 H   -0.424378030330    1.479943352302   -1.664327060957
 H    1.028621969670   -1.705056647698   -1.231327060957
 H    0.641621969670   -0.435056647698   -2.380327060957
 H   -0.089829030330   -0.196126647698    2.851912939043
