6
0 1 
 C   -0.345684380335   -0.532926855567   -0.362375050660
 O    0.335315619665    0.531073144433    0.294624949340
 H    0.394315619665    0.334073144433    1.255624949340
 H   -0.774684380335   -0.159926855567   -1.294375050660
 H   -1.157684380335   -0.889926855567    0.272624949340
 H    0.332355619665   -1.367266855567   -0.595048950660
