16
0 1 
 C   -1.297688599737    2.403543407215    1.114519266796
 C    0.599311400263   -1.121456592785   -0.532480733204
 C    0.042311400263   -1.154456592785    0.736519266796
 C    0.571311400263    0.060543407215   -1.266480733204
 C   -0.575688599737   -0.015456592785    1.257519266796
 C   -0.038688599737    1.204543407215   -0.742480733204
 C   -0.612688599737    1.181543407215    0.532519266796
 O    1.192311400263   -2.246456592785   -1.037480733204
 H    0.063311400263   -2.069456592785    1.309519266796
 H    1.189311400263   -2.972456592785   -0.404480733204
 H    1.035311400263    0.079543407215   -2.239480733204
 H   -1.021688599737   -0.057456592785    2.242519266796
 H   -0.058688599737    2.116543407215   -1.322480733204
 H   -1.938688599737    2.075543407215    1.932519266796
 H   -1.954688599737    2.834543407215    0.357519266796
 H   -0.617408599737    3.178853407215    1.496773266796
