11
0 1 
 C   -0.071256496312   -0.325314442290   -0.474171376261
 C    0.246743503688   -0.889314442290    0.911828623739
 C   -0.171256496312    1.198685557710   -0.471171376261
 H    0.674743503688   -0.645314442290   -1.188171376261
 H   -1.032256496312   -0.737314442290   -0.787171376261
 H    0.202743503688   -1.979314442290    0.859828623739
 H   -0.538256496312   -0.564314442290    1.597828623739
 H   -0.825256496312    1.519685557710    0.342828623739
 H    0.822743503688    1.624685557710   -0.320171376261
 H    1.223523503688   -0.590754442290    1.320195623739
 H   -0.578356496312    1.562475557710   -1.426120376261
