11
1 1 
 C   -0.299845413680    0.496377769900    0.137605615670
 C   -0.795845413680   -0.413622230100   -0.981394384330
 N    0.949154586320   -0.042622230100    0.753605615670
 H   -0.102845413680    1.494377769900   -0.265394384330
 H   -1.086845413680    0.590377769900    0.894605615670
 H   -1.060845413680   -1.385622230100   -0.562394384330
 H    0.007154586320   -0.569622230100   -1.706394384330
 H    1.700154586320   -0.107622230100    0.076605615670
 H    1.270154586320    0.560377769900    1.502605615670
 H    0.803154586320   -0.965622230100    1.146605615670
 H   -1.671765413680   -0.009792230100   -1.510251384330
