8
0 1 
 C    0.119774780082    0.696464518654   -0.287861153769
 C   -0.112225219918   -0.695535481346    0.291138846231
 H    1.113774780082    0.779464518654   -0.722861153769
 H   -0.616225219918    0.891464518654   -1.065861153769
 H    0.005774780082    1.440464518654    0.501138846231
 H    0.007774780082   -1.434535481346   -0.502861153769
 H   -1.150225219918   -0.737535481346    0.619138846231
 H    0.549234780082   -0.950384481346    1.132278846231
