18
0 1 
 C   -0.560363872814    0.183527012846    1.962659884019
 C   -2.061363872814   -0.121472987154    2.026659884019
 C    0.011636127186    0.097527012846    0.575659884019
 C   -0.196363872814    1.130527012846   -0.337340115981
 C    0.712636127186   -1.040472987154    0.171659884019
 C    0.285636127186    1.026527012846   -1.644340115981
 C    1.192636127186   -1.148472987154   -1.132340115981
 C    0.978636127186   -0.114472987154   -2.044340115981
 H   -0.367363872814    1.188527012846    2.327659884019
 H   -0.024363872814   -0.507472987154    2.616659884019
 H   -2.602363872814    0.595527012846    1.404659884019
 H   -0.742363872814    2.015527012846   -0.036340115981
 H    0.880636127186   -1.852472987154    0.865659884019
 H    0.118636127186    1.815527012846   -2.350340115981
 H    1.720636127186   -2.033472987154   -1.443340115981
 H    1.337636127186   -0.206472987154   -3.060340115981
 H   -2.404883872814   -0.041267987154    3.068562884019
 H   -2.239443872814   -1.131309987154    1.628516884019
