18
0 1 
 C    1.380332116874   -0.459214415373    0.446363977946
 C    2.418332116874   -0.196214415373   -0.625636022054
 C    0.428332116874    0.980785584627   -1.271636022054
 C   -1.269667883126   -0.939214415373    1.544363977946
 C   -1.108667883126   -0.038214415373    0.333363977946
 O   -2.068667883126    0.477785584627   -0.247636022054
 N    0.165332116874    0.154785584627   -0.093636022054
 H    1.249332116874   -1.534214415373    0.565363977946
 H    1.658332116874   -0.024214415373    1.395363977946
 H    2.486332116874   -1.078214415373   -1.265636022054
 H    3.395332116874    0.006785584627   -0.188636022054
 H    0.083332116874    2.003785584627   -1.107636022054
 H   -0.623667883126   -0.581214415373    2.338363977946
 H   -0.929667883126   -1.938214415373    1.274363977946
 H    2.059802116874    0.651095584627   -1.228556022054
 H    1.520582116874    0.966945584627   -1.401246022054
 H   -0.073117883126    0.544085584627   -2.147906022054
 H   -2.304197883126   -0.985964415373    1.915263977946
