9
0 1 
 C    0.334067077288   -1.436648575883   -0.309941016670
 C   -1.122932922712    0.936351424117   -0.355941016670
 S    0.402067077288    0.252351424117    0.336058983330
 H    0.370067077288   -1.430648575883   -1.397941016670
 H    1.185067077288   -1.999648575883    0.071058983330
 H   -0.590932922712   -1.912648575883    0.016058983330
 H   -1.231932922712    1.950351424117    0.029058983330
 H   -1.967932922712    0.358351424117    0.004058983330
 H   -1.126552922712    0.985641424117   -1.454830016670
