8
0 1 
 C    0.488229883147   -0.361763637564    0.471938792190
 C   -0.489770116853    0.361236362436   -0.471061207810
 H   -0.007770116853   -1.199763637564    0.961938792190
 H    1.332229883147   -0.740763637564   -0.106061207810
 H    0.876229883147    0.321236362436    1.223938792190
 H    0.018229883147    1.204236362436   -0.941061207810
 H   -1.344990116853    0.728476362436    0.115228792190
 H   -0.855590116853   -0.307143637564   -1.264433207810
