8
0 1 
 C   -0.716619401680    0.161147534460    0.198884040684
 C    0.723380598320   -0.151852465540   -0.200115959316
 H   -0.809619401680    1.192147534460    0.540884040684
 H   -1.420619401680   -0.047852465540   -0.602115959316
 H   -1.040619401680   -0.493852465540    0.997884040684
 H    0.735380598320   -1.149852465540   -0.641115959316
 H    1.376842598320   -0.165332465540    0.684647040684
 H    1.078130598320    0.554067534460   -0.965514959316
