8
0 1 
 C   -0.366985380640   -0.520932358402   -0.424482211420
 C    0.372014619360    0.516067641598    0.426517788580
 H   -1.130985380640   -1.013932358402    0.176517788580
 H   -0.848985380640   -0.026932358402   -1.269482211420
 H    0.337014619360   -1.264932358402   -0.798482211420
 H   -0.379985380640    1.248067641598    0.710517788580
 H    0.826854619360    0.083359141598    1.329778788580
 H    1.136204619360    1.032293641598   -0.173087211420
