8
0 1 
 C   -0.229132383244    0.239845814667    0.681369187468
 C    0.229867616756   -0.239154185333   -0.681630812532
 H    0.097867616756    1.267845814667    0.850369187468
 H   -1.319132383244    0.197845814667    0.742369187468
 H    0.200867616756   -0.399154185333    1.454369187468
 H   -0.167132383244   -1.242154185333   -0.849630812532
 H    1.329347616756   -0.247514185333   -0.714303812532
 H   -0.150572383244    0.414895814667   -1.480057812532
