18
0 1 
 C    1.220293195206   -0.232640779333   -0.815739358311
 C    2.431293195206    0.465359220667   -0.253739358311
 C    0.734293195206    0.459359220667    1.462260641689
 C   -1.516706804794   -0.816640779333   -1.366739358311
 C   -1.134706804794   -0.147640779333   -0.038739358311
 O   -1.987706804794    0.226359220667    0.774260641689
 N    0.175293195206    0.010359220667    0.184260641689
 H    0.990293195206    0.106359220667   -1.819739358311
 H    1.427293195206   -1.302640779333   -0.846739358311
 H    2.476293195206    1.505359220667   -0.566739358311
 H    3.348293195206   -0.040640779333   -0.555739358311
 H    0.455293195206   -0.223640779333    2.264260641689
 H   -0.967706804794   -0.301640779333   -2.151739358311
 H    2.296203195206    0.425927220667    0.837220641689
 H    1.822093195206    0.424826220667    1.302540641689
 H    0.431583195206    1.480456220667    1.737450641689
 H   -1.248016804794   -1.883110779333   -1.345606358311
 H   -2.572846804794   -0.686588779333   -1.645422358311
