7
-1 1 
 C   -0.300611471749    1.165106525998   -0.799777164039
 C    0.028388528251   -0.068893474002    0.040222835961
 O    1.117388528251   -0.661893474002   -0.117777164039
 O   -0.835611471749   -0.442893474002    0.874222835961
 H   -0.179611471749    2.057106525998   -0.181777164039
 H   -1.357611471749    1.123106525998   -1.072777164039
 H    0.306528528251    1.301136525998   -1.706904164039
