6
0 1 
 C    0.689774629942   -0.211381442002   -0.118844552983
 O   -0.634225370058    0.250618557998    0.128155447017
 H   -1.235225370058   -0.482381442002   -0.058844552983
 H    1.336774629942    0.641618557998   -0.326844552983
 H    1.059104629942   -0.749621442002    0.766535447017
 H    0.691934629942   -0.870231442002   -0.999704552983
