8
0 1 
 C    0.756333404248   -0.103931984165   -0.126663028842
 C   -0.755666595752    0.097068015835    0.129336971158
 H    0.908333404247   -0.613931984165   -1.076663028842
 H    1.245333404247    0.867068015835   -0.164663028842
 H    1.211333404247   -0.685931984165    0.674336971158
 H   -1.160666595752    0.707068015835   -0.677663028842
 H   -1.287896595753   -0.865071984165    0.161316971158
 H   -0.924376595752    0.672528015835    1.051496971158
