16
0 1 
 C    2.079492398404   -1.814013068513    0.988686463565
 C   -0.459507601596    1.004986931487    0.804686463565
 C    0.521492398404    0.141986931487    1.273686463565
 C   -0.972507601596    0.839986931487   -0.476313536435
 C    1.016492398404   -0.877013068513    0.467686463565
 C   -0.499507601596   -0.181013068513   -1.288313536435
 C    0.486492398404   -1.040013068513   -0.811313536435
 O   -1.936507601596    1.689986931487   -0.917313536435
 H   -0.826507601596    1.797986931487    1.440686463565
 H    0.902492398404    0.268986931487    2.276686463565
 H   -2.133507601596    2.379986931487   -0.279313536435
 H   -0.911507601596   -0.305013068513   -2.278313536435
 H    1.937492398404   -2.799013068513    0.537686463565
 H    1.927492398404   -1.916013068513    2.061686463565
 H    0.852492398404   -1.837013068513   -1.446313536435
 H    3.118382398404   -1.489493068513    0.829296463565
