6
0 1 
 C   -0.427208853360   -0.551709087028   -0.206320351154
 O    0.361791146640    0.558290912972    0.197679648846
 H    1.281791146640    0.238290912972    0.233679648846
 H   -1.469208853360   -0.356709087028    0.050679648846
 H   -0.103208853360   -1.447709087028    0.325679648846
 H   -0.364558853360   -0.725249087028   -1.290737351154
