9
0 1 
 C    0.858288970688    0.498222129499   -1.046452317291
 C   -0.084711029312    0.002222129499    0.014547682709
 O   -1.305711029312    0.109222129499   -0.091452317291
 N    0.490288970688   -0.580777870501    1.057547682709
 H    1.882288970688    0.356222129499   -0.714452317291
 H    0.693288970688    1.569222129499   -1.176452317291
 H   -0.096711029312   -0.958777870501    1.795547682709
 H    1.501288970688   -0.569777870501    1.146547682709
 H    0.719318970688   -0.019495870501   -2.007002317291
