11
1 1 
 C   -0.101299511823   -0.002805492017   -0.619275221533
 C   -1.251299511823    0.004194507983    0.361724778467
 N    1.188700488177   -0.003805492017    0.184724778467
 H   -0.167299511823   -0.890805492017   -1.257275221533
 H   -0.160299511823    0.886194507983   -1.257275221533
 H   -1.163299511823    0.888194507983    0.997724778467
 H   -1.188299511823   -0.879805492017    0.997724778467
 H    1.223700488177   -0.770805492017    0.844724778467
 H    1.996700488177   -0.071805492017   -0.424275221533
 H    1.289700488177    0.854194507983    0.714724778467
 H   -2.241959511823    0.020974507983   -0.116095221533
