16
0 1 
 C   -1.111092367310   -0.405836068923   -2.668325058439
 C    0.539907632690    0.199163931077    1.242674941561
 C    0.989907632690    0.927163931077    0.149674941561
 C   -0.473092367310   -0.720836068923    1.071674941561
 C    0.468907632690    0.724163931077   -1.104325058439
 C   -1.028092367310   -0.902836068923   -0.200325058439
 C   -0.546092367310   -0.194836068923   -1.284325058439
 O    1.071907632690    0.378163931077    2.481674941561
 H    0.841907632690   -0.352836068923    3.082674941561
 H    1.477907632690    1.848163931077    0.247674941561
 H   -0.851092367310   -1.281836068923    1.910674941561
 H    0.797907632690    1.336163931077   -1.938325058439
 H   -1.832092367310   -1.616836068923   -0.337325058439
 H   -1.615092367310   -1.369836068923   -2.709325058439
 H   -0.245092367310   -0.491836068923   -3.328325058439
 H   -1.778592367310    0.378513931077   -3.054655058439
