8
0 1 
 C   -0.121403629022   -0.687655404326   -0.302941441046
 C    0.122596370978    0.686344595674    0.308058558954
 H   -0.703403629022   -1.305655404326    0.376058558954
 H   -0.662403629022   -0.577655404326   -1.240941441046
 H    0.803596370978   -1.191655404326   -0.550941441046
 H    0.924596370978    1.175344595674   -0.244941441046
 H    0.405346370978    0.607604595674    1.368178558954
 H   -0.781933629022    1.307624595674    0.231658558954
