8
0 1 
 C   -0.366717378810    0.657663241585   -0.050474585967
 C    0.368282621190   -0.658336758415    0.054525414033
 H    0.336282621190    1.479663241585    0.068525414033
 H   -0.837717378810    0.752663241585   -1.023474585967
 H   -1.129717378810    0.712663241585    0.727525414033
 H   -0.369717378810   -1.459336758415    0.059525414033
 H    0.987739021190   -0.705436758415    0.962300414033
 H    0.994493421190   -0.772196758415   -0.842634585967
