14

   N     -0.36880     -0.82986     -0.01502
   C     -1.45066      0.18542     -0.00682
   C      0.95650     -0.27492      0.35469
   H     -0.61496     -1.59174      0.65085
   H     -0.31100     -1.25380     -0.93892
   H     -1.52661      0.58993      0.99631
   H     -1.20058      0.97070     -0.71091
   H     -2.38027     -0.29466     -0.28947
   H      1.68776     -1.07441      0.33025
   H      1.22192      0.50267     -0.35244
   H      0.88336      0.13632      1.35512
   O     -1.10073     -2.75323      1.82195
   H     -0.67269     -3.61195      1.74161
   H     -0.95424     -2.50079      2.73949
