20

   N      0.31225      0.16787      0.38557
   C     -0.20587     -1.19050      0.44893
   C     -0.77262      1.07994      0.05601
   C      1.35118      0.25204     -0.62575
   H     -1.00032     -1.23683      1.19074
   H      0.59230     -1.87692      0.72888
   H     -0.61160     -1.51750     -0.52237
   H     -1.55601      0.99070      0.80564
   H     -1.20531      0.85801     -0.93317
   H     -0.40162      2.10397      0.03950
   H      1.74434      1.26658     -0.67075
   H      0.97500     -0.01557     -1.62615
   H      2.16701     -0.42510     -0.37716
   P     -3.78624     -0.29136      3.65138
   O     -2.67398     -0.20961      2.63942
   O     -3.35322     -1.37372      4.80680
   O     -5.20064     -0.60965      3.28859
   O     -3.82883      1.12324      4.48316
   H     -2.39224     -1.39881      4.86233
   H     -2.95001      1.51644      4.46760
