25

   N      0.48707      0.11596      0.02997
   C      0.06452     -1.17902      0.54053
   C     -0.57430      1.10763      0.15227
   C      0.98449      0.02039     -1.33157
   H     -0.26423     -1.07352      1.57970
   H      0.90573     -1.88145      0.51166
   H     -0.77116     -1.62569     -0.03739
   H     -0.89678      1.14249      1.19834
   H     -1.45040      0.88027     -0.49110
   H     -0.19975      2.09788     -0.13074
   H      1.35002      0.99929     -1.66294
   H      0.21498     -0.31731     -2.05728
   H      1.82024     -0.68761     -1.37484
   C     -1.79330      0.66619      5.85544
   H     -1.71720      1.21701      6.79853
   H     -0.94788     -0.02386      5.77788
   H     -2.70695      0.06378      5.86975
   C     -1.81213      1.55502      4.61910
   O     -1.86363      1.08214      3.48990
   N     -1.76431      2.89886      4.86609
   H     -1.74812      3.21389      5.82456
   C     -1.78916      3.89506      3.81053
   H     -1.64651      3.37016      2.86573
   H     -2.74691      4.43012      3.77775
   H     -0.98162      4.62282      3.94610
