35
0 1 
 C   -0.813309541454   -0.086675701064    2.978955464812
 N   -0.659658841454   -0.079925301064    4.373870564812
 C    0.569122458546    0.006544098936    4.936128164812
 C    1.689564858546    0.087799598936    4.175923664812
 C    1.512203758546    0.078820798936    2.757483164812
 N    0.301060558546    0.000939198936    2.209362864812
 O   -1.956655941454   -0.172169001064    2.519790164812
 N    2.563093758546    0.153625898936    1.939545064812
 C   -1.870289641454   -0.169710401064    5.175974864812
 H    0.599248158546    0.004599798936    6.016571764812
 H    2.664038658546    0.153340998936    4.631888864812
 H    3.487828858546    0.185532198936    2.325852864812
 H    2.434596058546    0.092238898936    0.917728464812
 H   -2.400365641454   -1.088872201064    4.943149864812
 H   -2.525031141454    0.667704898936    4.951953264812
 H   -1.589660341454   -0.154960601064    6.224826264812
 O    2.212604158546   -0.049532901064   -0.791886535188
 C    1.129607958546   -0.009131001064   -1.387460835188
 N   -0.067178641454    0.085508598936   -0.671322735188
 C   -1.328519941454    0.145343898936   -1.200514235188
 N   -1.581236541454    0.102721798936   -2.491134435188
 C   -0.446034041454    0.008832298936   -3.218660335188
 C    0.881431358546   -0.046682601064   -2.793290835188
 N    1.743428658546   -0.136677301064   -3.858511935188
 C    0.941998058546   -0.135415501064   -4.908128035188
 N   -0.388633141454   -0.049840501064   -4.582549835188
 N   -2.339395641454    0.302972298936   -0.310831735188
 H    0.033124958546    0.089830598936    0.356621064812
 H    1.260469658546   -0.193988601064   -5.936351335188
 C   -1.525871041454   -0.022592401064   -5.475298535188
 H   -3.256592241454    0.156979598936   -0.692500835188
 H   -2.194725541454    0.083638098936    0.673030864812
 H   -2.174124441454   -0.873776301064   -5.282756235188
 H   -2.093958941454    0.892335798936   -5.327706935188
 H   -1.162840441454   -0.065411401064   -6.498048935188
