18
0 1 
 N   -0.399429743884    1.780814740885    0.016779159215
 C   -1.701334343884    1.373902040885    0.060376559215
 H   -2.506298643884    2.090764240885    0.092048959215
 N   -1.859293243884    0.055490740885    0.059211759215
 C   -0.573313543884   -0.413608059115    0.005105559215
 C   -0.038710743884   -1.714520959115    0.003875359215
 N   -0.832167443884   -2.811400859115    0.063415759215
 H   -0.382097443884   -3.689104859115   -0.135044340785
 H   -1.773216743884   -2.700655259115   -0.279968240785
 N    1.291360956116   -1.861406759115   -0.013124340785
 C    2.061980756116   -0.759669659115   -0.056900640785
 H    3.129125456116   -0.942254559115   -0.075417040785
 N    1.687982056116    0.523650940885   -0.073967740785
 C    0.355678756116    0.634991840885   -0.028116740785
 C    0.097368656116    3.143145640885   -0.009301640785
 H   -0.096351243884    3.585420740885   -0.983665340785
 H   -0.388699743884    3.724570040885    0.769691559215
 H    1.166172656116    3.106896440885    0.182689959215
