16
0 1 
 S    2.349535052712    0.000082188830    1.388016712975
 C    0.819514252712    0.000020288830    0.733201612975
 N   -0.325634147288   -0.000061311170    1.514022012975
 C   -1.616708547288   -0.000108311170    1.042997512975
 N   -1.925320747288    0.000046788830   -0.241692487025
 C   -0.834787247288    0.000094388830   -1.024186187025
 C    0.509991252712    0.000046388830   -0.647917087025
 N    1.335843952712    0.000050488830   -1.748512887025
 C    0.503986852712    0.000101088830   -2.769023687025
 N   -0.817306647288    0.000147688830   -2.390233587025
 N   -2.598475947288   -0.000529111170    1.959098212975
 H   -0.193342947288   -0.000081711170    2.532266812975
 H    0.794902952712    0.000099488830   -3.805941187025
 H   -1.627492047288    0.000128988830   -2.987108687025
 H   -3.533602547288    0.000116088830    1.597208312975
 H   -2.443305547288    0.000097888830    2.967810612975
