30
0 1 
 N   -0.787753699191    0.002060760144   -4.230301217603
 C   -0.809233599191    0.001589260144   -2.858216517603
 C    0.507835600809   -0.000217139856   -2.444441417603
 N    1.304291700809   -0.000766939856   -3.577563817603
 C    0.525176700809    0.000364760144   -4.718223217603
 C    0.811051100809   -0.002218239856   -1.072276317603
 N   -0.354059299191   -0.001211639856   -0.304724517603
 C   -1.626590699191    0.001202360144   -0.795825717603
 N   -1.908457199191    0.002141360144   -2.088110317603
 O    1.937576200809   -0.004745139856   -0.537225017603
 N   -2.623378199191    0.003817160144    0.109435882397
 O    0.879132700809   -0.000403739856   -5.882716517603
 H   -1.590769499191    0.003420060144   -4.835070117603
 H   -0.213859999191   -0.001875939856    0.719818782397
 H   -3.558430599191    0.000485460144   -0.250838617603
 H   -2.452181299191   -0.001536039856    1.112134782397
 H    2.308294400809   -0.002831939856   -3.601270617603
 N    2.383772100809    0.002408560144    2.188124082397
 C    1.363564600809    0.001316960144    3.044279982397
 C    1.606754900809    0.003730460144    4.458496382397
 C    0.521005700809    0.003005660144    5.266898482397
 N   -0.724504999191   -0.000244439856    4.732245882397
 C   -0.957261199191   -0.002823339856    3.355300882397
 N    0.130180300809   -0.001924639856    2.540786682397
 O   -2.120843599191   -0.005602039856    2.950603382397
 H   -1.546667199191   -0.000859639856    5.314647582397
 H    0.586920800809    0.004889460144    6.344714582397
 H    2.604421200809    0.006241160144    4.865697682397
 H    3.322998000809    0.004523460144    2.539732782397
 H    2.214879900809    0.000055360144    1.169041882397
