19
0 1 
 C   -2.018039360525   -2.517195151704   -0.460031016335
 N   -1.654039460525   -1.105195551704   -0.277031116335
 C   -2.503039260525   -0.033195851704   -0.302031116335
 N   -1.902039360525    1.133803848296   -0.121031116335
 C   -0.579039760525    0.788803948296   -0.006031116335
 C    0.595959939475    1.577803648296    0.189968783665
 O    0.651959939475    2.808803348296    0.288968783665
 N    1.737959539475    0.865803848296    0.265968783665
 C    1.788959539475   -0.503195751704    0.175968783665
 N    3.028959239475   -1.011195551704    0.274968783665
 N    0.737959839475   -1.294195451704   -0.006031116335
 C   -0.402039860525   -0.584195651704   -0.083031116335
 H   -1.114311660525   -3.110910951704   -0.319926016335
 H   -2.409958260525   -2.686464151704   -1.466906716335
 H   -2.767761160525   -2.814028051704    0.277966783665
 H    2.617828339475    1.402708748296    0.384486783665
 H   -3.569163960525   -0.163734851704   -0.434941016335
 H    3.096761239475   -2.015777251704    0.289078783665
 H    3.838649039475   -0.449245751704    0.559771683665
