29
0 1 
 O    0.609855998945    2.711847145603   -1.423562732043
 C    1.166421998945    1.636659145603   -1.423562732043
 N    0.407055998945    0.467046145603   -1.423562732043
 C    0.897885998945   -0.802043854397   -1.423562732043
 N    2.170669998945   -1.081487854397   -1.423562732043
 C    2.941246998945    0.020524145603   -1.423562732043
 C    2.561902998945    1.340288145603   -1.423562732043
 N    3.669729998945    2.165171145603   -1.423562732043
 C    4.666754998945    1.368538145603   -1.423562732043
 N    4.294401998945    0.042630145603   -1.423562732043
 N   -0.004306001055   -1.787138854397   -1.423562732043
 H   -0.591528001055    0.602283145603   -1.423562732043
 H    5.698059998945    1.657790145603   -1.423562732043
 H    4.886003998945   -0.754403854397   -1.423562732043
 H    0.342593998945   -2.715652854397   -1.423562732043
 H   -0.991103001055   -1.620305854397   -1.423562732043
 C   -1.948504001055   -1.580828854397    1.936437267957
 N   -3.181175001055   -2.218628854397    1.936437267957
 C   -4.350816001055   -1.538319854397    1.936437267957
 C   -4.361004001055   -0.201658854397    1.936437267957
 C   -3.069574001055    0.449489145603    1.936437267957
 N   -1.945202001055   -0.231658854397    1.936437267957
 O   -0.948347001055   -2.261315854397    1.936437267957
 N   -3.003475001055    1.770635145603    1.936437267957
 H   -3.156917001055   -3.212831854397    1.936437267957
 H   -5.247568001055   -2.128982854397    1.936437267957
 H   -5.273856001055    0.359232145603    1.936437267957
 H   -3.829770001055    2.318282145603    1.936437267957
 H   -2.108380001055    2.232866145603    1.936437267957
