13
0 1 
 C    0.822900293535   -0.936008467380    0.000000000000
 N    1.512233293535    0.302475532620    0.000000000000
 C    0.896745293535    1.508947532620    0.000000000000
 C   -0.467301706465    1.574041532620    0.000000000000
 C   -1.154736706465    0.309404532620    0.000000000000
 N   -0.551246706465   -0.865238467380    0.000000000000
 O    1.474874293535   -1.972743467380    0.000000000000
 N   -2.515708706465    0.300713532620    0.000000000000
 H    2.526056293535    0.224739532620    0.000000000000
 H    1.539163293535    2.390505532620    0.000000000000
 H   -0.989611706465    2.528698532620    0.000000000000
 H   -3.055505706465    1.153298532620    0.000000000000
 H   -2.987765706465   -0.595122467380    0.000000000000
