35
0 1 
 O   -1.614534453197   -2.756900769226   -0.206134587287
 C   -1.184255653197   -1.785144069226    0.396788212713
 N   -0.065292153197   -1.905551869226    1.248130512713
 C    0.596704346803   -0.900115369226    1.888756012713
 N    0.197282346803    0.347315130774    1.886653512713
 C   -0.926432753197    0.512959430774    1.143867512713
 C   -1.636694153197   -0.421158269226    0.392093112713
 N   -2.668481453197    0.172177630774   -0.287046087287
 C   -2.582743453197    1.447879330774    0.061904012713
 N   -1.553792553197    1.706786230774    0.926487812713
 N    1.721097046803   -1.283465869226    2.590411912713
 H    0.331000946803   -2.835377969226    1.284994812713
 H   -3.245680253197    2.230884730774   -0.269336687287
 C   -1.155250053197    2.980842530774    1.483622712713
 H    2.179106146803   -0.465378069226    2.965070012713
 H    2.366885646803   -1.783912369226    1.989879712713
 H   -0.157943753197    3.244737430774    1.137848412713
 H   -1.865281053197    3.737274630774    1.162024412713
 H   -1.147125553197    2.926018930774    2.569043912713
 C    1.919597146803   -0.289218069226   -0.796370187287
 N    1.841173246803    1.119393430774   -0.840238687287
 C    0.854459146803    1.747899430774   -1.518534587287
 C   -0.100406253197    1.043880630774   -2.181584487287
 C   -0.007199953197   -0.376315069226   -2.103703887287
 N    0.971288846803   -0.997117069226   -1.470399287287
 O    2.820831446803   -0.801273669226   -0.130372087287
 N   -0.950255053197   -1.142687269226   -2.710850787287
 C    2.807630946803    1.857793630774   -0.045540587287
 H    0.876617846803    2.829366830774   -1.501497887287
 H   -0.883539153197    1.541937630774   -2.729578187287
 H   -1.858080753197   -0.715400569226   -2.805156987287
 H   -0.990016853197   -2.089368369226   -2.356833787287
 H    3.808684646803    1.503006230774   -0.269960287287
 H    2.608078746803    1.697968830774    1.012737012713
 H    2.719927546803    2.914171030774   -0.285523087287
