36
0 1 
 N   -3.610067094385    3.228639777638   -0.194654064702
 C   -2.887067094385    4.324639777638    0.057345935298
 N   -1.585067094385    4.132639777638    0.222345935298
 C   -1.484067094385    2.751639777638    0.038345935298
 C   -0.339067094385    1.896639777638    0.099345935298
 N    0.871932905615    2.332639777638    0.304345935298
 N   -0.632067094385    0.591639777638   -0.131654064702
 C   -1.857067094385    0.116639777638   -0.357654064702
 N   -2.985067094385    0.877639777638   -0.426654064702
 C   -2.689067094385    2.164639777638   -0.210654064702
 H   -3.353644094385    5.300192777638    0.125632935298
 H   -1.945664094385   -0.956723222362   -0.494580064702
 H    1.663685905615    1.693581777638    0.218381935298
 H    1.023026905615    3.324697777638    0.393346935298
 C   -5.040881094385    3.115004777638   -0.416749064702
 H   -5.489408094385    4.107377777638   -0.345370064702
 H   -5.239349094385    2.697058777638   -1.406721064702
 H   -5.489840094385    2.459083777638    0.333140935298
 N    1.711932905615   -3.745360222362    0.208345935298
 C    3.060932905615   -3.475360222362    0.236345935298
 C    3.557932905615   -2.257360222362    0.145345935298
 C    2.604932905615   -1.185360222362    0.007345935298
 O    2.957932905615    0.006639777638   -0.093654064702
 N    1.293932905615   -1.471360222362   -0.043654064702
 C    0.775932905615   -2.729360222362    0.039345935298
 O   -0.422067094385   -2.949360222362    0.001345935298
 H    3.693932905615   -4.351874222362    0.346457935298
 C    5.018892905615   -1.921197222362    0.179083935298
 H    5.629118905615   -2.822137222362    0.287174935298
 H    5.241964905615   -1.243536222362    1.009163935298
 H    5.318542905615   -1.400282222362   -0.735686064702
 H    0.604318905615   -0.676403222362   -0.109386064702
 C    1.237679905615   -5.123404222362    0.321275935298
 H    0.152396905615   -5.104036222362    0.247944935298
 H    1.648470905615   -5.737922222362   -0.485760064702
 H    1.531141905615   -5.550781222362    1.285082935298
