26
0 1 
 C   -1.020999995462   -0.948799999893   -1.650000000000
 N   -1.020999995462    0.468600000107   -1.650000000000
 C    0.103546004538    1.223449000107   -1.650000000000
 C    1.327070004538    0.616940000107   -1.650000000000
 C    1.312692004538   -0.822387999893   -1.650000000000
 N    0.214110004538   -1.555258999893   -1.650000000000
 O   -2.094877995462   -1.537590999893   -1.650000000000
 N    2.497645004538   -1.491870999893   -1.650000000000
 H   -1.944656995462    0.893736000107   -1.650000000000
 H   -0.029046995462    2.306160000107   -1.650000000000
 H    2.247734004538    1.197075000107   -1.650000000000
 H    3.383948004538   -1.009429999893   -1.650000000000
 H    2.474439004538   -2.504204999893   -1.650000000000
 C    1.021000004538    0.948800000107    1.650000000000
 N    1.021000004538   -0.468599999893    1.650000000000
 C   -0.103545995462   -1.223448999893    1.650000000000
 C   -1.327069995462   -0.616939999893    1.650000000000
 C   -1.312691995462    0.822388000107    1.650000000000
 N   -0.214109995462    1.555259000107    1.650000000000
 O    2.094878004538    1.537592000107    1.650000000000
 N   -2.497644995462    1.491870000107    1.650000000000
 H    1.944657004538   -0.893734999893    1.650000000000
 H    0.029048004538   -2.306159999893    1.650000000000
 H   -2.247733995462   -1.197075999893    1.650000000000
 H   -3.383948995462    1.009429000107    1.650000000000
 H   -2.474439995462    2.504204000107    1.650000000000
