30
0 1 
 N   -1.090703752019   -2.683345323107   -1.564086939954
 C   -1.551669752019   -1.433650323107   -1.564086939954
 N   -0.692708752019   -0.414169323107   -1.564086939954
 C   -1.158776752019    0.834164676893   -1.564086939954
 N   -2.405401752019    1.235059676893   -1.564086939954
 C   -3.251040752019    0.207218676893   -1.564086939954
 C   -2.921969752019   -1.127616323107   -1.564086939954
 N   -4.056393752019   -1.916398323107   -1.564086939954
 C   -5.023043752019   -1.077357323107   -1.564086939954
 N   -4.611417752019    0.230495676893   -1.564086939954
 H   -0.402325752019    1.599100676893   -1.564086939954
 H   -6.063448752019   -1.333200323107   -1.564086939954
 H   -5.182361752019    1.042943676893   -1.564086939954
 H   -0.107641752019   -2.861075323107   -1.564086939954
 H   -1.734015752019   -3.438208323107   -1.564086939954
 O    2.774120247981   -1.620538323107    1.675913060046
 C    2.843597247981   -0.417743323107    1.675913060046
 N    1.705447247981    0.352346676893    1.675913060046
 C    1.638227247981    1.717392676893    1.675913060046
 N    2.861324247981    2.333925676893    1.675913060046
 C    4.051331247981    1.646675676893    1.675913060046
 C    4.115307247981    0.317213676893    1.675913060046
 O    0.609482247981    2.329546676893    1.675913060046
 C    5.392590247981   -0.472878323107    1.675913060046
 H    2.842001247981    3.327437676893    1.675913060046
 H    0.817617247981   -0.136468323107    1.675913060046
 H    4.930697247981    2.263271676893    1.675913060046
 H    5.449734247981   -1.113201323107    2.549085060046
 H    5.448874247981   -1.114462323107    0.803611060046
 H    6.253373247981    0.186483676893    1.675027060046
