15
0 1 
 N    1.578630892700   -2.016316853574   -0.355530982307
 C    1.117664892700   -0.785607853574   -0.138523982307
 N    1.976625892700    0.218385146426    0.038507017693
 C    1.510557892700    1.447754146426    0.255278017693
 N    0.263932892700    1.842558146426    0.324893017693
 C   -0.581706107300    0.830332146426    0.146410017693
 C   -0.252635107300   -0.484222853574   -0.085381982307
 N   -1.387059107300   -1.261021853574   -0.222351982307
 C   -2.353709107300   -0.434727853574   -0.076653982307
 N   -1.942083107300    0.853256146426    0.150452017693
 H    2.267008892700    2.201069146426    0.388108017693
 H   -3.394114107300   -0.686683853574   -0.121080982307
 H   -2.513027107300    1.653361146426    0.291532017693
 H    2.561692892700   -2.191346853574   -0.386393982307
 H    0.935318892700   -2.759711853574   -0.486611982307
