15
0 1 
 N    2.480583765103   -0.728503307950    0.000000000000
 C    1.373101765103    0.011572692050    0.000000000000
 N    1.468780765103    1.341234692050    0.000000000000
 C    0.357970765103    2.077209692050    0.000000000000
 N   -0.886210234897    1.668792692050    0.000000000000
 C   -0.966196234897    0.340197692050    0.000000000000
 C    0.084623765103   -0.546283307950    0.000000000000
 N   -0.369510234897   -1.851219307950    0.000000000000
 C   -1.644722234897   -1.740603307950    0.000000000000
 N   -2.080446234897   -0.440580307950    0.000000000000
 H    0.520334765103    3.140686692050    0.000000000000
 H   -2.336046234897   -2.559119307950    0.000000000000
 H   -3.019895234896   -0.118888307950    0.000000000000
 H    3.380364765103   -0.294460307950    0.000000000000
 H    2.403830765103   -1.717329307950    0.000000000000
