32
0 1 
 O   -2.095314965314    2.097097708953   -0.000113813989
 C   -0.977271965314    2.604820708953   -0.000132213989
 N    0.171955334686    1.793617808953   -0.000082813989
 C    1.469438434686    2.219952508953    0.000062486011
 N    1.828077934686    3.484587708953   -0.000147213989
 C    0.751724034686    4.304044808953   -0.000206513989
 C   -0.605063865314    3.988980308953   -0.000167513989
 N   -1.384217565314    5.122385108953   -0.000107113989
 C   -0.511403365314    6.109741408953   -0.000099313989
 N    0.789057934686    5.671300108953   -0.000175213989
 N    2.414696634686    1.251849508953    0.001015586011
 H   -0.007091865314    0.781333708953    0.000059386011
 H   -0.758943665314    7.157632608953   -0.000044413989
 H    1.624840734686    6.231021108953   -0.000102713989
 H    3.372056734686    1.546377908953   -0.000508013989
 H    2.192660534686    0.267982508953   -0.000600613989
 S    2.439543634686   -2.301378791047   -0.000178513989
 C    0.925776334686   -2.960725891047   -0.000167413989
 N    0.755603134686   -4.345938691047   -0.000108813989
 C   -0.435160165314   -5.021652991047    0.000117786011
 N   -1.606079865314   -4.431766091047   -0.000168813989
 C   -1.495338365314   -3.085597991047   -0.000212313989
 C   -0.333286365314   -2.312570691047   -0.000135413989
 N   -0.638683265314   -0.977550591047   -0.000078413989
 C   -1.960485065314   -0.931445391047   -0.000108913989
 N   -2.518078365314   -2.181433491047   -0.000201513989
 N   -0.365260665314   -6.376870491047    0.001729986011
 H    1.624876634686   -4.864032791047    0.000124586011
 H   -2.522782665314   -0.009015391047   -0.000063313989
 H   -3.501296165314   -2.399759991047   -0.000188413989
 H   -1.226269565314   -6.889518891047   -0.000733013989
 H    0.504425534686   -6.871611491047   -0.001261913989
