26
0 1 
 C   -0.081804063052    0.078491000000   -1.650000000000
 N   -1.369369063052   -0.514131000000   -1.650000000000
 C   -2.525251063052    0.191799000000   -1.650000000000
 C   -2.485860063052    1.556831000000   -1.650000000000
 C   -1.172365063052    2.145560000000   -1.650000000000
 N   -0.047304063052    1.454027000000   -1.650000000000
 O    0.902045936948   -0.650842000000   -1.650000000000
 N   -1.059643063052    3.501884000000   -1.650000000000
 H   -1.369376063052   -1.530931000000   -1.650000000000
 H   -3.453346063052   -0.381336000000   -1.650000000000
 H   -3.397789063052    2.150603000000   -1.650000000000
 H   -1.868459063052    4.105290000000   -1.650000000000
 H   -0.130337063052    3.904066000000   -1.650000000000
 C    0.081803936948   -0.078491000000    1.650000000000
 N    1.369368936948    0.514131000000    1.650000000000
 C    2.525250936948   -0.191799000000    1.650000000000
 C    2.485859936948   -1.556831000000    1.650000000000
 C    1.172364936948   -2.145560000000    1.650000000000
 N    0.047304936948   -1.454027000000    1.650000000000
 O   -0.902046063052    0.650842000000    1.650000000000
 N    1.059642936948   -3.501884000000    1.650000000000
 H    1.369375936948    1.530931000000    1.650000000000
 H    3.453345936948    0.381336000000    1.650000000000
 H    3.397788936948   -2.150603000000    1.650000000000
 H    1.868458936948   -4.105290000000    1.650000000000
 H    0.130336936948   -3.904066000000    1.650000000000
