15
0 1 
 N    0.636119664659    1.812013401187    0.000000000000
 C    1.795553664659    1.142613401187    0.000000000000
 N    2.008332664659   -0.192942598813    0.000000000000
 C    0.939660664659   -1.005994598813    0.000000000000
 C   -0.350272335341   -0.436385598813    0.000000000000
 C   -0.403355335341    0.960406401187    0.000000000000
 N   -1.751008335341    1.248486401187    0.000000000000
 C   -2.416242335341    0.048665401187    0.000000000000
 N   -1.609368335341   -1.003711598813    0.000000000000
 N    1.128127664659   -2.345500598813    0.000000000000
 H    2.696669664659    1.752313401187    0.000000000000
 H   -3.497913335341   -0.002898598813    0.000000000000
 H   -2.156148335341    2.177270401187    0.000000000000
 H    2.069496664659   -2.709522598813    0.000000000000
 H    0.335968664659   -2.970452598813    0.000000000000
