28
0 1 
 N    0.865508902762   -1.061288226776   -1.363102202786
 C    1.326474902762    0.185362773224   -1.450277202786
 N    0.467513902762    1.202360773224   -1.521392202786
 C    0.933581902762    2.447653773224   -1.608471202786
 N    2.180206902762    2.847572773224   -1.636436202786
 C    3.025845902762    1.822234773224   -1.564738202786
 C    2.696774902762    0.490651773224   -1.471624202786
 N    3.831198902762   -0.296209226776   -1.416602202786
 C    4.797848902762    0.540787773224   -1.475130202786
 N    4.386222902762    1.845455773224   -1.566362202786
 H    0.177130902762    3.210726773224   -1.661831202786
 H    5.838253902762    0.285568773224   -1.457284202786
 H    4.957166902762    2.655924773224   -1.623035202786
 H   -0.117553097238   -1.238585226776   -1.350704202786
 H    1.508820902762   -1.814312226776   -1.310446202786
 C   -3.513834097238   -0.099158226776    1.915695797214
 N   -4.501633097238   -1.073996226776    1.901147797214
 C   -4.217831097238   -2.394178226776    1.814797797214
 C   -2.951297097238   -2.814775226776    1.738946797214
 C   -1.932612097238   -1.788226226776    1.755150797214
 N   -2.231237097238   -0.510787226776    1.839691797214
 O   -3.850320097238    1.060085773224    1.995106797214
 N   -0.657176097238   -2.131589226776    1.683302797214
 H   -5.438508097238   -0.745313226776    1.958249797214
 H   -5.056768097238   -3.064418226776    1.811362797214
 H   -2.701362097238   -3.854323226776    1.669864797214
 H   -0.393002097238   -3.084843226776    1.618517797214
 H    0.059248902762   -1.423439226776    1.693917797214
