12
0 1 
 S    1.407820512771    0.000421906956   -2.043491641986
 C    0.342854812771    0.000110606956   -0.765607741986
 N   -1.006810287229    0.000078206956   -0.992030941986
 C   -1.942911787229   -0.000051493044    0.006677058014
 C   -1.579602287229   -0.000200193044    1.305478758014
 C   -0.170911487229   -0.000287193044    1.657607958014
 N    0.693021612771   -0.000080393044    0.542839158014
 O    0.280587312771   -0.000510493044    2.788021158014
 H   -2.310089787229   -0.000272593044    2.096603758014
 H   -1.277905787229    0.000218106956   -1.962330441986
 H    1.700920912771   -0.000075593044    0.759663258014
 H   -2.972947987229   -0.000022793044   -0.317752341986
