38
0 1 
 C   -4.093498903690   -2.517195307398    1.015000704563
 N   -3.729499003690   -1.105195707398    1.198000604563
 C   -4.578498803690   -0.033196007398    1.173000604563
 N   -3.977498903690    1.133803692602    1.354000604563
 C   -2.654499303690    0.788803792602    1.469000604563
 C   -1.479499603690    1.577803492602    1.665000504563
 O   -1.423499603690    2.808803192602    1.764000504563
 N   -0.337500003690    0.865803692602    1.741000504563
 C   -0.286500003690   -0.503195907398    1.651000504563
 N    0.953499696310   -1.011195707398    1.750000504563
 N   -1.337499703690   -1.294195607398    1.469000604563
 C   -2.477499403690   -0.584195807398    1.392000604563
 H   -3.189771203690   -3.110911107398    1.155105704563
 H   -4.485417803690   -2.686464307398    0.008125004563
 H   -4.843220703690   -2.814028207398    1.752998504563
 H    0.542368796310    1.402708592602    1.859518504563
 H   -5.644623503690   -0.163735007398    1.040090704563
 H    1.021301696310   -2.015777407398    1.764110504563
 H    1.763189496310   -0.449245907398    2.034803404563
 C    4.093498796310   -2.517195307398   -1.014998695437
 N    3.729498896310   -1.105195707398   -1.197998695437
 C    4.578498696310   -0.033196007398   -1.172998695437
 N    3.977498796310    1.133803692602   -1.353998595437
 C    2.654499196310    0.788803792602   -1.468998595437
 C    1.479499496310    1.577803492602   -1.664998595437
 O    1.423499596310    2.808803192602   -1.763998495437
 N    0.337499896310    0.865803692602   -1.740998495437
 C    0.286499896310   -0.503195907398   -1.650998595437
 N   -0.953499803690   -1.011195707398   -1.749998495437
 N    1.337499596310   -1.294195607398   -1.468998595437
 C    2.477499296310   -0.584195807398   -1.391998595437
 H   -0.542366903690    1.402707592602   -1.859554495437
 H   -1.763098603690   -0.449238907398   -2.035051495437
 H   -1.021181803690   -2.015783407398   -1.764642495437
 H    3.188165096310   -3.110213107398   -1.147470695437
 H    4.492474696310   -2.684698307398   -0.010629995437
 H    4.837585596310   -2.816460207398   -1.757743495437
 H    5.644610396310   -0.163716007398   -1.039969695437
