26
0 1 
 C    0.870352116012   -1.392056983202   -1.650000000000
 N   -0.417212883988   -1.984678983202   -1.650000000000
 C   -1.573094883988   -1.278748983202   -1.650000000000
 C   -1.533703883988    0.086283016798   -1.650000000000
 C   -0.220208883988    0.675012016798   -1.650000000000
 N    0.904852116012   -0.016520983202   -1.650000000000
 O    1.854202116012   -2.121389983202   -1.650000000000
 N   -0.107486883988    2.031336016798   -1.650000000000
 H   -0.417219883988   -3.001478983202   -1.650000000000
 H   -2.501189883988   -1.851883983202   -1.650000000000
 H   -2.445632883988    0.680055016798   -1.650000000000
 H   -0.916302883988    2.634742016798   -1.650000000000
 H    0.821819116012    2.433518016798   -1.650000000000
 C    0.870352116012   -0.392056983202    1.650000000000
 N   -0.417212883988   -0.984678983202    1.650000000000
 C   -1.573094883988   -0.278748983202    1.650000000000
 C   -1.533703883988    1.086283016798    1.650000000000
 C   -0.220208883988    1.675012016798    1.650000000000
 N    0.904852116012    0.983479016798    1.650000000000
 O    1.854202116012   -1.121389983202    1.650000000000
 N   -0.107486883988    3.031336016798    1.650000000000
 H   -0.417219883988   -2.001478983202    1.650000000000
 H   -2.501189883988   -0.851883983202    1.650000000000
 H   -2.445632883988    1.680055016798    1.650000000000
 H   -0.916302883988    3.634741016798    1.650000000000
 H    0.821819116012    3.433518016798    1.650000000000
