12
0 1 
 O    2.514076065157    0.191034182853    0.000000000000
 C    1.324603065157   -0.112321817147    0.000000000000
 N    0.331064065157    0.884505182853    0.000000000000
 C   -1.046592934843    0.737339182853    0.000000000000
 N   -1.437481934843   -0.595718817147    0.000000000000
 C   -0.556415934843   -1.654095817147    0.000000000000
 C    0.781934065157   -1.464611817147    0.000000000000
 O   -1.840572934843    1.668768182853    0.000000000000
 H    1.474496065157   -2.296134817147    0.000000000000
 H    0.665190065157    1.845085182853    0.000000000000
 H   -2.439192934843   -0.746898817147    0.000000000000
 H   -1.011943934843   -2.639020817147    0.000000000000
