30
0 1 
 N    1.237625292675   -1.124574024600   -1.489941948158
 C    1.698591292675    0.120365975400   -1.598859948158
 N    0.839630292675    1.135966975400   -1.687713948158
 C    1.305698292675    2.379550975400   -1.796512948158
 N    2.552323292675    2.778920975400   -1.831452948158
 C    3.397962292675    1.754990975400   -1.741870948158
 C    3.068891292675    0.425234975400   -1.625532948158
 N    4.203315292675   -0.360545024600   -1.556785948158
 C    5.169965292675    0.475302975400   -1.629912948158
 N    4.758339292675    1.778178975400   -1.743899948158
 H    0.549247292675    3.141575975400   -1.863181948158
 H    6.210370292675    0.220432975400   -1.607614948158
 H    5.329283292675    2.587535975400   -1.814708948158
 H    0.254563292675   -1.301628024600   -1.474451948158
 H    1.880937292675   -1.876565024600   -1.424150948158
 N   -0.340251707325   -1.637257024600    1.489942051842
 C   -1.444938707325   -0.901029024600    1.598860051842
 N   -1.346979707325    0.425493975400    1.687713051842
 C   -2.454996707325    1.157626975400    1.796513051842
 N   -3.698281707325    0.747975975400    1.831453051842
 C   -3.780566707325   -0.577455024600    1.741871051842
 C   -2.732731707325   -1.459827024600    1.625533051842
 N   -3.188630707325   -2.762334024600    1.556786051842
 C   -4.461965707325   -2.654302024600    1.629913051842
 N   -4.894764707325   -1.358305024600    1.743900051842
 H   -2.290922707325    2.218748975400    1.863182051842
 H   -5.153862707325   -3.472030024600    1.607615051842
 H   -5.832396707325   -1.039114024600    1.814709051842
 H    0.559131292675   -1.202667024600    1.474452051842
 H   -0.418693707325   -2.623760024600    1.424151051842
