26
0 1 
 C    1.418196000000   -0.921509004538   -1.650000000000
 N    0.130631000000   -1.514131004538   -1.650000000000
 C   -1.025251000000   -0.808201004538   -1.650000000000
 C   -0.985860000000    0.556830995462   -1.650000000000
 C    0.327635000000    1.145559995462   -1.650000000000
 N    1.452696000000    0.454026995462   -1.650000000000
 O    2.402046000000   -1.650842004538   -1.650000000000
 N    0.440357000000    2.501883995462   -1.650000000000
 H    0.130624000000   -2.530931004538   -1.650000000000
 H   -1.953346000000   -1.381336004538   -1.650000000000
 H   -1.897789000000    1.150602995462   -1.650000000000
 H   -0.368459000000    3.105289995462   -1.650000000000
 H    1.369663000000    2.904065995462   -1.650000000000
 C   -1.418196000000    0.921508995462    1.650000000000
 N   -0.130631000000    1.514130995462    1.650000000000
 C    1.025251000000    0.808200995462    1.650000000000
 C    0.985860000000   -0.556831004538    1.650000000000
 C   -0.327635000000   -1.145560004538    1.650000000000
 N   -1.452696000000   -0.454027004538    1.650000000000
 O   -2.402046000000    1.650841995462    1.650000000000
 N   -0.440357000000   -2.501884004538    1.650000000000
 H   -0.130624000000    2.530931995462    1.650000000000
 H    1.953346000000    1.381335995462    1.650000000000
 H    1.897789000000   -1.150603004538    1.650000000000
 H    0.368459000000   -3.105290004538    1.650000000000
 H   -1.369663000000   -2.904066004538    1.650000000000
