13
0 1 
 C    1.207719861416    0.307717967193    0.000000000000
 N    1.077163861416   -1.103656032807    0.000000000000
 C   -0.112130138584   -1.751715032807    0.000000000000
 C   -1.274588138584   -1.035086032807    0.000000000000
 C   -1.127695138584    0.396798967193    0.000000000000
 N    0.033720861416    1.025364967193    0.000000000000
 O    2.331265861416    0.795091967193    0.000000000000
 N   -2.245945138584    1.172581967193    0.000000000000
 H    1.957734861416   -1.612063032807    0.000000000000
 H   -0.079829138584   -2.842036032807    0.000000000000
 H   -2.244774138584   -1.527952032807    0.000000000000
 H   -3.172918138584    0.773828967193    0.000000000000
 H   -2.129591138584    2.178474967193    0.000000000000
