13
0 1 
 C   -0.870352224078    0.892056987740    0.000000000000
 N    0.417212775922    1.484678987740    0.000000000000
 C    1.573094775922    0.778748987740    0.000000000000
 C    1.533703775922   -0.586283012260    0.000000000000
 C    0.220209775922   -1.175012012260    0.000000000000
 N   -0.904852224078   -0.483479012260    0.000000000000
 O   -1.854202224078    1.621389987740    0.000000000000
 N    0.107486775922   -2.531336012260    0.000000000000
 H    0.417219775922    2.501478987740    0.000000000000
 H    2.501189775922    1.351883987740    0.000000000000
 H    2.445632775922   -1.180055012260    0.000000000000
 H    0.916302775922   -3.134742012260    0.000000000000
 H   -0.821819224078   -2.933518012260    0.000000000000
