28
0 1 
 N    1.657637759806   -1.066004519011   -1.434867090384
 C    1.196671759806    0.183690480989   -1.434867090384
 N    2.055632759806    1.203171480989   -1.434867090384
 C    1.589564759806    2.451505480989   -1.434867090384
 N    0.342939759806    2.852400480989   -1.434867090384
 C   -0.502699240194    1.824559480989   -1.434867090384
 C   -0.173628240194    0.489724480989   -1.434867090384
 N   -1.308052240194   -0.299057519011   -1.434867090384
 C   -2.274702240194    0.539983480989   -1.434867090384
 N   -1.863076240194    1.847836480989   -1.434867090384
 H    2.346015759806    3.216441480989   -1.434867090384
 H   -3.315107240194    0.284140480989   -1.434867090384
 H   -2.434020240194    2.660284480989   -1.434867090384
 H    2.640699759806   -1.243734519011   -1.434867090384
 H    1.014325759806   -1.820867519011   -1.434867090384
 C   -0.639008240194   -0.097110519011    1.745132909616
 N   -1.626508240194   -1.072359519011    1.745132909616
 C   -1.340934240194   -2.394980519011    1.745132909616
 C   -0.072843240194   -2.817721519011    1.745132909616
 C    0.945509759806   -1.790713519011    1.745132909616
 N    0.645148759806   -0.510886519011    1.745132909616
 O   -0.977124240194    1.064377480989    1.745132909616
 N    2.222419759806   -2.136106519011    1.745132909616
 H   -2.564556240194   -0.742062519011    1.745132909616
 H   -2.179800240194   -3.065317519011    1.745132909616
 H    0.178509759806   -3.859219519011    1.745132909616
 H    2.487923759806   -3.091191519011    1.745132909616
 H    2.938626759806   -1.427656519011    1.745132909616
