30
0 1 
 N    1.422398223975   -1.101738477416   -1.880530937881
 C    0.961432223975    0.128970522584   -1.663523937881
 N    1.820393223975    1.132963522584   -1.486492937881
 C    1.354325223975    2.362332522584   -1.269721937881
 N    0.107700223975    2.757136522584   -1.200106937881
 C   -0.737938776025    1.744910522584   -1.378589937881
 C   -0.408867776025    0.430355522584   -1.610381937881
 N   -1.543291776025   -0.346443477416   -1.747351937881
 C   -2.509941776025    0.479850522584   -1.601653937881
 N   -2.098315776025    1.767834522584   -1.374547937881
 H    2.110776223975    3.115647522584   -1.136891937881
 H   -3.550346776025    0.227894522584   -1.646080937881
 H   -2.669259776025    2.567939522584   -1.233467937881
 H    2.405460223975   -1.276768477416   -1.911393937881
 H    0.779086223975   -1.845133477416   -2.011611937881
 N    2.618533223975   -1.617916477416    1.169469062119
 C    1.522211223975   -0.893201477416    1.386476062119
 N    1.626993223975    0.423930522584    1.563507062119
 C    0.527331223975    1.144562522584    1.780278062119
 N   -0.713269776025    0.731218522584    1.849893062119
 C   -0.802434776025   -0.584743477416    1.671410062119
 C    0.236466223975   -1.454818477416    1.439618062119
 N   -0.224711776025   -2.750059477416    1.302648062119
 C   -1.492431776025   -2.649756477416    1.448345062119
 N   -1.916476776025   -1.365807477416    1.675452062119
 H    0.696525223975    2.198638522584    1.913108062119
 H   -2.186040776025   -3.465127477416    1.403919062119
 H   -2.848670776025   -1.054101477416    1.816532062119
 H    3.516727223975   -1.181689477416    1.138606062119
 H    2.535039223975   -2.597465477416    1.038388062119
