15
0 1 
 N    1.578630892700   -2.047422086931    0.000000000000
 C    1.117664892700   -0.797727086931    0.000000000000
 N    1.976625892700    0.221753913069    0.000000000000
 C    1.510557892700    1.470087913069    0.000000000000
 N    0.263932892700    1.870982913069    0.000000000000
 C   -0.581706107300    0.843141913069    0.000000000000
 C   -0.252635107300   -0.491693086931    0.000000000000
 N   -1.387059107300   -1.280475086931    0.000000000000
 C   -2.353709107300   -0.441434086931    0.000000000000
 N   -1.942083107300    0.866418913069    0.000000000000
 H    2.267008892700    2.235023913069    0.000000000000
 H   -3.394114107300   -0.697277086931    0.000000000000
 H   -2.513027107300    1.678866913069    0.000000000000
 H    2.561692892700   -2.225152086931    0.000000000000
 H    0.935318892700   -2.802285086931    0.000000000000
