18
0 1 
 N   -0.442410346712   -1.264108712346    0.109572372129
 C    0.906589653288   -0.994108712346    0.137572372129
 C    1.403589653288    0.223891287654    0.046572372129
 C    0.450589653288    1.295891287654   -0.091427627871
 O    0.803589653288    2.487891287654   -0.192427627871
 N   -0.860410346712    1.009891287654   -0.142427627871
 C   -1.378410346712   -0.248108712346   -0.059427627871
 O   -2.576410346712   -0.468108712346   -0.097427627871
 H    1.539589653288   -1.870622712346    0.247684372129
 C    2.864549653288    0.560054287654    0.080310372129
 H    3.474775653288   -0.340885712346    0.188401372129
 H    3.087621653288    1.237715287654    0.910390372129
 H    3.164199653288    1.080969287654   -0.834459627871
 H   -1.550024346712    1.804848287654   -0.208159627871
 C   -0.916663346712   -2.642152712346    0.222502372129
 H   -2.001946346712   -2.622784712346    0.149171372129
 H   -0.505872346712   -3.256670712346   -0.584533627871
 H   -0.623201346712   -3.069529712346    1.186309372129
