15
0 1 
 N    1.914184682388   -0.116829837471   -1.770278339346
 C    1.239667082388   -0.067112637471   -0.612224939346
 N    1.927847482388   -0.085840637471    0.539297460654
 C    1.255912582388   -0.040504537471    1.702007760654
 N   -0.060510017612    0.027082962529    1.907481960654
 C   -0.715230417612    0.044428462529    0.742701360654
 C   -0.168117817612   -0.000147037471   -0.541210239346
 N   -1.153191017612    0.033436262529   -1.504527939346
 C   -2.277373217612    0.098935862529   -0.806820539346
 N   -2.073622117612    0.109459562529    0.539855060654
 H    1.872834782388   -0.059920837471    2.590954460654
 H   -3.265563917612    0.142853462529   -1.233734139346
 H   -2.774122117612    0.153168062529    1.261304060654
 H    2.915777582388   -0.144202637471   -1.702749839346
 H    1.463481682388   -0.061552737471   -2.680118339346
