29
0 1 
 C   -3.071113316053   -1.777259622021   -1.936437267957
 N   -4.443254316053   -1.568704622021   -1.936437267957
 C   -4.989637316053   -0.330825622021   -1.936437267957
 C   -4.212210316053    0.756544377979   -1.936437267957
 C   -2.784686316053    0.524250377979   -1.936437267957
 N   -2.275419316053   -0.687698622021   -1.936437267957
 O   -2.661949316053   -2.915662622021   -1.936437267957
 N   -1.954661316053    1.554228377979   -1.936437267957
 H   -5.008007316053   -2.387290622021   -1.936437267957
 H   -6.062308316053   -0.281584622021   -1.936437267957
 H   -4.621039316053    1.746875377979   -1.936437267957
 H   -2.301248316053    2.482967377979   -1.936437267957
 H   -0.958821316053    1.402056377979   -1.936437267957
 O   -0.057728316053    1.320524377979    1.423562732043
 C    1.024522683947    0.777820377979    1.423562732043
 N    1.097664683947   -0.614760622021    1.423562732043
 C    2.240706683947   -1.352972622021    1.423562732043
 N    3.434663683947   -0.830924622021    1.423562732043
 C    3.410326683947    0.513555377979    1.423562732043
 C    2.327692683947    1.358294377979    1.423562732043
 N    2.739089683947    2.676803377979    1.423562732043
 C    4.013949683947    2.618350377979    1.423562732043
 N    4.492058683947    1.326804377979    1.423562732043
 N    2.089842683947   -2.680226622021    1.423562732043
 H    0.210302683947   -1.092304622021    1.423562732043
 H    4.678274683947    3.458546377979    1.423562732043
 H    5.439159683947    1.029725377979    1.423562732043
 H    2.916256683947   -3.227507622021    1.423562732043
 H    1.193444683947   -3.125280622021    1.423562732043
