31
0 1 
 N   -1.078054183967   -1.425839159538    1.543284231483
 C   -1.539020183967   -0.180899159538    1.652202231483
 N   -0.680059183967    0.834701840462    1.741056231483
 C   -1.146127183967    2.078285840462    1.849855231483
 N   -2.392752183967    2.477655840462    1.884795231483
 C   -3.238391183967    1.453725840462    1.795213231483
 C   -2.909320183967    0.123969840462    1.678875231483
 N   -4.043744183967   -0.661810159538    1.610128231483
 C   -5.010394183967    0.174037840462    1.683255231483
 N   -4.598768183967    1.476913840462    1.797242231483
 H   -0.389676183967    2.840310840462    1.916524231483
 H   -6.050799183967   -0.080832159538    1.660957231483
 H   -5.169712183967    2.286270840462    1.868051231483
 H   -0.094992183967   -1.602893159538    1.527794231483
 H   -1.721366183967   -2.177830159538    1.477493231483
 O   -0.086124183967   -1.442820159538   -1.349551768517
 C    0.993721816033   -0.903426159538   -1.443260768517
 N    1.064246816033    0.485553840462   -1.545198768517
 C    2.204450816033    1.219859840462   -1.655807768517
 N    3.397782816033    0.696949840462   -1.680162768517
 C    3.375910816033   -0.644137159538   -1.584115768517
 C    2.296228816033   -1.484813159538   -1.469090768517
 N    2.709470816033   -2.800782159538   -1.397197768517
 C    3.982548816033   -2.744782159538   -1.466628768517
 N    4.457691816033   -1.457318159538   -1.582189768517
 N    2.051382816033    2.544080840462   -1.741664768517
 H    0.177187816033    0.963513840462   -1.533412768517
 H    4.647519816033   -3.584087159538   -1.441418768517
 H    5.403009816033   -1.162692159538   -1.651655768517
 H    2.875720816033    3.088502840462   -1.822589768517
 H    1.155358816033    2.989647840462   -1.727123768517
