30
0 1 
 N   -0.302685775671   -1.360026454275    1.564087063473
 C   -1.410167775671   -0.619950454275    1.564087063473
 N   -1.314488775671    0.709711545725    1.564087063473
 C   -2.425298775671    1.445686545725    1.564087063473
 N   -3.669479775671    1.037269545725    1.564087063473
 C   -3.749465775671   -0.291325454275    1.564087063473
 C   -2.698645775671   -1.177806454275    1.564087063473
 N   -3.152779775671   -2.482742454275    1.564087063473
 C   -4.427991775671   -2.372126454275    1.564087063473
 N   -4.863715775671   -1.072103454275    1.564087063473
 H   -2.262934775671    2.509163545725    1.564087063473
 H   -5.119315775671   -3.190642454275    1.564087063473
 H   -5.803164775671   -0.750411454275    1.564087063473
 H    0.597095224329   -0.925983454275    1.564087063473
 H   -0.379438775671   -2.348852454275    1.564087063473
 O    1.559598224329   -1.135038454275   -1.675912936527
 C    2.322791224329   -0.202794454275   -1.675912936527
 N    1.854656224329    1.089209545725   -1.675912936527
 C    2.602628224329    2.233065545725   -1.675912936527
 N    3.954523224329    2.012932545725   -1.675912936527
 C    4.513304224329    0.757467545725   -1.675912936527
 C    3.783623224329   -0.355693454275   -1.675912936527
 O    2.130171224329    3.332989545725   -1.675912936527
 C    4.352562224329   -1.745660454275   -1.675912936527
 H    4.522862224329    2.828058545725   -1.675912936527
 H    0.849068224329    1.215603545725   -1.675912936527
 H    5.587152224329    0.739425545725   -1.675912936527
 H    4.022420224329   -2.297280454275   -0.802740936527
 H    4.020984224329   -2.297795454275   -2.548214936527
 H    5.436513224329   -1.718180454275   -1.676798936527
