15
0 1 
 N   -1.915202175167   -0.069517344916    1.771539234742
 C   -1.239948375167   -0.054589944916    0.613076734742
 N   -1.927495975167   -0.100117544916   -0.538159165258
 C   -1.255151775167   -0.077358844916   -1.701289365258
 N    0.061159224833   -0.010917744916   -1.907720265258
 C    0.715358024833    0.030683055084   -0.743233265258
 C    0.167913324833    0.010907555084    0.541142034742
 N    1.152736424833    0.062203555084    1.503984834742
 C    2.277111624833    0.113995755084    0.805460334742
 N    2.073750224833    0.098444555084   -0.541234065258
 H   -1.871628275167   -0.117543044916   -2.589849265258
 H    3.265204724833    0.165491355084    1.231749534742
 H    2.774385324833    0.129215555084   -1.263213465258
 H   -2.914845175167   -0.138313944916    1.705009634742
 H   -1.462434475167   -0.043738044916    2.681974834742
