30
0 1 
 O   -1.408019699769   -2.724564201657   -1.795030872066
 C   -2.171212699769   -1.795867201657   -1.713779872066
 N   -1.703077699769   -0.508780201657   -1.601174872066
 C   -2.451049699769    0.630723798343   -1.501480872066
 N   -3.802944699769    0.411427798343   -1.520666872066
 C   -4.361725699769   -0.839259201657   -1.630087872066
 C   -3.632044699769   -1.948184201657   -1.727105872066
 O   -1.978592699769    1.726461798343   -1.405615872066
 C   -4.200983699769   -3.332862201657   -1.848249872066
 H   -4.371283699769    1.223452798343   -1.449623872066
 H   -0.697489699769   -0.382866201657   -1.590158872066
 H   -5.435573699769   -0.857233201657   -1.631659872066
 H   -3.870841699769   -3.958485201657   -1.026476872066
 H   -3.869405699769   -3.806870201657   -2.765353872066
 H   -5.284934699769   -3.305409201657   -1.846737872066
 O    2.740570300231   -1.376605201657    1.795031127934
 C    2.812132300231   -0.176680201657    1.713780127934
 N    1.676872300231    0.589432798343    1.601175127934
 C    1.612210300231    1.950956798343    1.501481127934
 N    2.834815300231    2.568167798343    1.520667127934
 C    4.022014300231    1.884782798343    1.630088127934
 C    4.083500300231    0.558747798343    1.727106127934
 O    0.585926300231    2.559724798343    1.405616127934
 C    5.357674300231   -0.227065201657    1.848250127934
 H    2.817315300231    3.559169798343    1.449624127934
 H    0.789324300231    0.100228798343    1.590159127934
 H    4.901340300231    2.501434798343    1.631660127934
 H    5.368853300231   -0.804122201657    2.766176127934
 H    5.457411300231   -0.928455201657    1.027389127934
 H    6.218563300231    0.432149798343    1.844972127934
