36
0 1 
 C    3.838523261400    4.597849424141    0.131353790633
 N    3.678523261400    3.175849824141    0.321353790633
 C    4.672523061400    2.249850024141    0.527353690633
 N    4.266523161400    0.993850424141    0.530353690633
 C    2.905523561400    1.113850324141    0.309353790633
 C    1.902523761400    0.141850624141    0.196353790633
 N    2.084523761400   -1.177148975859    0.282353790633
 N    0.638524161400    0.570850524141   -0.025646109367
 C    0.411524261400    1.901850124141   -0.133646109367
 N    1.281523961400    2.897849824141   -0.045646109367
 C    2.532523661400    2.441850024141    0.156353790633
 H    4.521609061400    5.002416224141    0.882063590633
 H    4.225535161400    4.825330324141   -0.867281909367
 H    2.860912561400    5.068647224141    0.244313790633
 H    5.698608761400    2.563807924141    0.672505690633
 H    3.020173461400   -1.538237875859    0.376290790633
 H    1.314801961400   -1.808536775859    0.057158890633
 H   -0.632528538600    2.166543024141   -0.285700009367
 C   -5.260474238600   -0.662149175859    0.103353890633
 N   -3.955474538600   -1.254148975859   -0.081646109367
 C   -2.834474838600   -0.442149175859    0.001353890633
 O   -2.925474838600    0.767850424141    0.188353790633
 N   -1.648475238600   -1.090148975859   -0.138646109367
 C   -1.453475238600   -2.442148675859   -0.343646009367
 O   -0.303475538600   -2.881148475859   -0.422646009367
 C   -2.667474938600   -3.235148375859   -0.445646009367
 C   -2.552474938600   -4.692147975859   -0.746645909367
 C   -3.849474638600   -2.617148575859   -0.307646009367
 H   -0.792135438600   -0.485374175859   -0.087991109367
 H   -1.949306138600   -5.206727875859    0.009056890633
 H   -3.535302638600   -5.169422875859   -0.788533909367
 H   -2.048329138600   -4.856140975859   -1.705480609367
 H   -4.794159338600   -3.146488475859   -0.372621009367
 H   -5.944403038600   -1.001186075859   -0.680077909367
 H   -5.681115038600   -0.924242075859    1.080902590633
 H   -5.150421238600    0.419132524141    0.047746890633
