26
0 1 
 C   -0.129647829955    0.107943012260   -1.650000000000
 N   -1.417212829955   -0.484678987740   -1.650000000000
 C   -2.573094829955    0.221251012260   -1.650000000000
 C   -2.533703829955    1.586283012260   -1.650000000000
 C   -1.220208829955    2.175012012260   -1.650000000000
 N   -0.095147829955    1.483479012260   -1.650000000000
 O    0.854202170045   -0.621389987740   -1.650000000000
 N   -1.107486829955    3.531336012260   -1.650000000000
 H   -1.417219829955   -1.501478987740   -1.650000000000
 H   -3.501189829955   -0.351883987740   -1.650000000000
 H   -3.445632829955    2.180055012260   -1.650000000000
 H   -1.916302829955    4.134742012260   -1.650000000000
 H   -0.178180829955    3.933518012260   -1.650000000000
 C    1.870351170045   -1.892056987740    1.650000000000
 N    0.582787170045   -2.484678987740    1.650000000000
 C   -0.573094829955   -1.778748987740    1.650000000000
 C   -0.533703829955   -0.413716987740    1.650000000000
 C    0.779791170045    0.175012012260    1.650000000000
 N    1.904852170045   -0.516520987740    1.650000000000
 O    2.854202170045   -2.621389987740    1.650000000000
 N    0.892513170045    1.531336012260    1.650000000000
 H    0.582780170045   -3.501478987740    1.650000000000
 H   -1.501189829955   -2.351883987740    1.650000000000
 H   -1.445632829955    0.180055012260    1.650000000000
 H    0.083697170045    2.134742012260    1.650000000000
 H    1.821819170045    1.933518012260    1.650000000000
