30
0 1 
 N   -1.379404596323   -2.676484988457   -1.417269784011
 C   -0.918438596323   -1.431544988457   -1.526187784011
 N   -1.777399596323   -0.415943988457   -1.615041784011
 C   -1.311331596323    0.827640011543   -1.723840784011
 N   -0.064706596323    1.227010011543   -1.758780784011
 C    0.780932403677    0.203080011543   -1.669198784011
 C    0.451861403677   -1.126675988457   -1.552860784011
 N    1.586285403677   -1.912455988457   -1.484113784011
 C    2.552935403677   -1.076607988457   -1.557240784011
 N    2.141309403677    0.226268011543   -1.671227784011
 H   -2.067782596323    1.589665011543   -1.790509784011
 H    3.593340403677   -1.331477988457   -1.534942784011
 H    2.712253403677    1.035625011543   -1.742036784011
 H   -2.362466596323   -2.853538988457   -1.401779784011
 H   -0.736092596323   -3.428475988457   -1.351478784011
 O   -0.303583596323   -1.613963988457    1.867703215989
 C   -0.232021596323   -0.414038988457    1.786452215989
 N   -1.367281596323    0.352074011543    1.673847215989
 C   -1.431943596323    1.713598011543    1.574153215989
 N   -0.209338596323    2.330809011543    1.593339215989
 C    0.977860403677    1.647424011543    1.702760215989
 C    1.039346403677    0.321389011543    1.799778215989
 O   -2.458227596323    2.322366011543    1.478288215989
 C    2.313520403677   -0.464423988457    1.920922215989
 H   -0.226838596323    3.321811011543    1.522296215989
 H   -2.254829596323   -0.137129988457    1.662831215989
 H    1.857186403677    2.264076011543    1.704332215989
 H    2.324699403677   -1.041480988457    2.838848215989
 H    2.413257403677   -1.165813988457    1.100061215989
 H    3.174409403677    0.194791011543    1.917644215989
