16
0 1 
 H    1.611402257721    1.134594531714   -2.442520849683
 N    1.440135257721    1.091466531714   -1.449247849683
 C    1.749135257721    2.042466531714   -0.513247849683
 H    2.433750257721    2.846243531714   -0.745858849683
 N    1.296135257721    1.790466531714    0.689752150317
 C    0.453135257721    0.687466531714    0.480752150317
 C   -0.478864742279    0.006466531714    1.341752150317
 O   -0.743864742279    0.201466531714    2.525752150317
 N   -1.172864742279   -1.016533468286    0.714752150317
 H   -1.844326742279   -1.489265468286    1.305053150317
 C   -0.969864742279   -1.390533468286   -0.583247849683
 N   -1.619864742279   -2.435533468286   -1.044247849683
 H   -2.188344742279   -3.001597468286   -0.436901849683
 H   -1.442311742279   -2.783103468286   -1.995316849683
 N   -0.109864742279   -0.793533468286   -1.401247849683
 C    0.552135257721    0.253466531714   -0.824247849683
