19
0 1 
 O   -0.746904562399   -2.584574267737   -1.182453320964
 C   -0.316625762399   -1.612817567737   -0.579530520964
 N    0.802337737601   -1.733225367737    0.271811779036
 C    1.464334237601   -0.727788867737    0.912437279036
 N    1.064912237601    0.519641632263    0.910334779036
 C   -0.058802862399    0.685285932263    0.167548779036
 C   -0.769064262399   -0.248831767737   -0.584225620964
 N   -1.800851562399    0.344504132263   -1.263364820964
 C   -1.715113562399    1.620205832263   -0.914414720964
 N   -0.686162662399    1.879112732263   -0.049830920964
 N    2.588726937601   -1.111139367737    1.614093179036
 H    1.198630837601   -2.663051467737    0.308676079036
 H   -2.378050362399    2.403211232263   -1.245655420964
 C   -0.287620162399    3.153169032263    0.507303979036
 H    3.046736037601   -0.293051567737    1.988751279036
 H    3.234515537601   -1.611585867737    1.013560979036
 H    0.709686137601    3.417063932263    0.161529679036
 H   -0.997651162399    3.909601132263    0.185705679036
 H   -0.279495662399    3.098345432263    1.592725179036
