16
0 1 
 O   -2.280514015706   -1.365136397002   -0.000097287951
 C   -1.162471015706   -0.857413397002   -0.000115687951
 N   -0.013243715706   -1.668616297002   -0.000066287951
 C    1.284239384294   -1.242281597002    0.000079012049
 N    1.642878884294    0.022353602998   -0.000130687951
 C    0.566524984294    0.841810702998   -0.000189987951
 C   -0.790262915706    0.526746202998   -0.000150987951
 N   -1.569416615706    1.660151002998   -0.000090587951
 C   -0.696602415706    2.647507302998   -0.000082787951
 N    0.603858884294    2.209066002998   -0.000158687951
 N    2.229497584294   -2.210384597002    0.001032112049
 H   -0.192290915706   -2.680900397002    0.000075912049
 H   -0.944142715706    3.695398502998   -0.000027887951
 H    1.439641684294    2.768787002998   -0.000086187951
 H    3.186857684294   -1.915856197002   -0.000491487951
 H    2.007461484294   -3.194251597002   -0.000584087951
