16
0 1 
 O    1.720580309290    0.353811754633   -1.992797709257
 C    1.036381209290    0.189448554633   -0.982391409257
 N    1.646628609290    0.033203354633    0.269866990743
 C    1.007537809290   -0.200082645367    1.449477090743
 N   -0.290895790710   -0.281080045367    1.593162390743
 C   -0.927191590710   -0.092714645367    0.410785490743
 C   -0.389945490710    0.125545354633   -0.856224709257
 N   -1.375807190710    0.244385454633   -1.806254409257
 C   -2.493982590710    0.101299354633   -1.121114709257
 N   -2.279717290710   -0.105651545367    0.217801190743
 N    1.827913209290   -0.301381745367    2.553893590743
 H    2.679836709290    0.141690254633    0.293939590743
 H   -3.486176890710    0.137944754633   -1.537701509257
 H   -2.971662890710   -0.242327545367    0.935630790743
 H    1.345284109290   -0.690176945367    3.348419690743
 H    2.724060809290   -0.728853645367    2.378287790743
