15
0 1 
 N    1.341732215448    0.519256598872   -0.826960118064
 C    1.479324915448   -0.386529101128    0.195883581936
 H    2.492148515448   -0.699922101128    0.404072481936
 C    0.423869215448   -0.856794001128    0.897892781936
 C    0.548400815448   -1.850793501128    2.003072381936
 H    0.242042115448   -1.408450601128    2.949578381936
 H   -0.093897484552   -2.709885301128    1.814900081936
 H    1.577515915448   -2.190120801128    2.102316181936
 C   -0.902199484552   -0.362655301128    0.556971081936
 O   -1.936656384552   -0.672539801128    1.131004981936
 N   -0.929419984552    0.528768898872   -0.521091718064
 H   -1.835134084552    0.916983898872   -0.747625718064
 C    0.134741815448    1.047979698872   -1.225425618064
 O    0.026484115448    1.889856498872   -2.102158018064
 H    2.151600515448    0.891138298872   -1.294507418064
