28
0 1 
 N    1.530479488667   -2.799360573871    1.250761275071
 C    1.069513488667   -1.554420573871    1.359679275071
 N    1.928474488667   -0.538819573871    1.448533275071
 C    1.462406488667    0.704764426129    1.557332275071
 N    0.215781488667    1.104134426129    1.592272275071
 C   -0.629857511333    0.080204426129    1.502690275071
 C   -0.300786511333   -1.249551573871    1.386352275071
 N   -1.435210511333   -2.035331573871    1.317605275071
 C   -2.401860511333   -1.199483573871    1.390732275071
 N   -1.990234511333    0.103392426129    1.504719275071
 H    2.218857488667    1.466789426129    1.624001275071
 H   -3.442265511333   -1.454353573871    1.368434275071
 H   -2.561178511333    0.912749426129    1.575528275071
 H    2.513541488667   -2.976414573871    1.235271275071
 H    0.887167488667   -3.551351573871    1.184970275071
 C    0.930949488667    1.775484426129   -1.633117724929
 N   -0.301255511333    2.413925426129   -1.651294724929
 C   -1.468126511333    1.737427426129   -1.759183724929
 C   -1.475883511333    0.404114426129   -1.853953724929
 C   -0.184972511333   -0.247748573871   -1.833707724929
 N    0.936688488667    0.429667426129   -1.728079724929
 O    1.928559488667    2.452465426129   -1.533899724929
 N   -0.116570511333   -1.565724573871   -1.923476724929
 H   -0.278828511333    3.405609426129   -1.579950724929
 H   -2.364769511333    2.328242426129   -1.763474724929
 H   -2.386519511333   -0.153727573871   -1.940266724929
 H   -0.940787511333   -2.110511573871   -2.004421724929
 H    0.778184488667   -2.028423573871   -1.910213724929
