12
0 1 
 S    1.280667208173    2.106255571982    0.320525515001
 C    0.306480108173    0.767408771982    0.088581315001
 N    0.725887108173   -0.514517928018    0.049183615001
 C   -0.083809391827   -1.662708128018   -0.135556084999
 C   -1.498756791827   -1.367263828018   -0.281899584999
 C   -1.923160591827   -0.089009028018   -0.241714684999
 N   -1.039180191827    0.942322671982   -0.064802584999
 O    0.414182208173   -2.770438528018   -0.159465684999
 H   -2.184094191827   -2.186277128018   -0.420936584999
 H    1.740930508173   -0.703007828018    0.171809115001
 H   -2.959569491827    0.196007971982   -0.344146784999
 H   -1.352423291827    1.899349571982   -0.033265484999
