15
0 1 
 H   -2.242192781821   -1.217771006583   -1.681377718462
 N   -1.797335781821   -0.803766006583   -0.876619718462
 C   -2.305335781821   -0.682766006583    0.396380281538
 H   -3.325341781821   -0.961038006583    0.619522281538
 N   -1.468335781821   -0.176766006583    1.264380281538
 C   -0.305335781821    0.016233993417    0.507380281538
 C    0.981664218179    0.545233993417    0.767380281538
 N    1.360664218179    1.081233993417    1.909380281538
 H    2.296997218179    1.455195993417    1.925823281538
 H    0.678557218179    1.438012993417    2.582332281538
 N    1.920664218179    0.572233993417   -0.180619718462
 C    1.601664218179    0.116233993417   -1.383619718462
 H    2.385851218179    0.155478993417   -2.135011718462
 N    0.437664218179   -0.381766006583   -1.786619718462
 C   -0.484335781821   -0.407766006583   -0.782619718462
