17
0 1 
 N   -0.615448673798    0.002009709028   -1.874209198862
 C   -0.636928573798    0.001538209028   -0.502124498862
 C    0.680140626202   -0.000268190972   -0.088349398862
 N    1.476596726202   -0.000817990972   -1.221471798862
 C    0.697481726202    0.000313709028   -2.362131198862
 C    0.983356126202   -0.002269290972    1.283815701138
 N   -0.181754273798   -0.001262690972    2.051367501138
 C   -1.454285673798    0.001151309028    1.560266301138
 N   -1.736152173798    0.002090309028    0.267981701138
 O    2.109881226202   -0.004796190972    1.818867001138
 N   -2.451073173798    0.003766109028    2.465527901138
 O    1.051437726202   -0.000454790972   -3.526624498862
 H   -1.418464473798    0.003369009028   -2.478978098862
 H   -0.041554973798   -0.001926990972    3.075910801138
 H   -3.386125573798    0.000434409028    2.105253401138
 H   -2.279876273798   -0.001587090972    3.468226801138
 H    2.480599426202   -0.002882990972   -1.245178598862
