12
0 1 
 O    1.798381464569   -0.001066758058    1.692956106375
 C    0.994353064569   -0.000416858058    0.754404206375
 N   -0.358142735431   -0.001115758058    0.896125306375
 C   -1.311922735431   -0.000325958058   -0.141905093625
 C   -0.733006035431    0.001258241942   -1.478316693625
 C    0.603854464569    0.001862641942   -1.631768393625
 N    1.443512364569    0.001091541942   -0.545365193625
 O   -2.501947135431   -0.000985558058    0.107488706375
 H   -1.397437135431    0.001889641942   -2.325260593625
 H   -0.728629435431   -0.001836358058    1.868078206375
 H    1.087319064569    0.003034041942   -2.596988693625
 H    2.443372764569    0.001505641942   -0.655450193625
