13
0 1 
 C   -1.203768740035   -0.066442653719   -0.254884393553
 N   -1.039959440035   -0.091294453719    1.134427006447
 C    0.173364059965   -0.028751353719    1.734881206447
 C    1.296406359965    0.058073746281    0.984340006447
 C    1.123728259965    0.080877446281   -0.440641593553
 N   -0.077273540035    0.027908946281   -1.011623793553
 O   -2.341893840035   -0.130697453719   -0.718084093553
 N    2.187888959965    0.159930446281   -1.240062093553
 H   -1.889390440035   -0.158305253719    1.671944306447
 H    0.184302959965   -0.054706253719    2.814360106447
 H    2.270613259965    0.106428346281    1.442008006447
 H    3.107563259965    0.182055946281   -0.841342693553
 H    2.071120159965    0.136352146281   -2.262660193553
