31
0 1 
 O   -1.295410307901   -0.283898817569   -5.271685642733
 C   -1.246296307901   -0.173685817569   -4.059693642733
 N    0.008862692099   -0.388177817569   -3.388106642733
 C    0.251226692099   -0.320601817569   -2.038759642733
 N   -0.698773307901   -0.032336817569   -1.163335642733
 C   -1.904879307901    0.200393182431   -1.743107642733
 C   -2.258687307901    0.156818182431   -3.091357642733
 N   -3.595897307901    0.463624182431   -3.263240642733
 C   -4.039598307901    0.689176182431   -2.055478642733
 N   -3.058764307901    0.540978182431   -1.086282642733
 N    1.505482692099   -0.594753817569   -1.601157642733
 H    0.757340692099   -0.635720817569   -4.023624642733
 H   -5.053077307901    0.961770182431   -1.795416642733
 H   -3.147866307901    0.697371182431   -0.093581642733
 H    1.742027692099   -0.312460817569   -0.641464642733
 H    2.259227692099   -0.600699817569   -2.270002642733
 N   -0.622933307901   -0.764543817569    1.761156357267
 C    0.310000692099   -0.460716817569    2.682845357267
 N   -0.005199307901   -0.612658817569    3.987145357267
 C    0.910286692099   -0.307126817569    4.916501357267
 N    2.154655692099    0.154865182431    4.749714357267
 C    2.444463692099    0.283011182431    3.450655357267
 C    1.612229692099   -0.001046817569    2.362432357267
 N    2.276108692099    0.233914182431    1.164769357267
 C    3.467229692099    0.654612182431    1.523904357267
 N    3.629374692099    0.709018182431    2.886044357267
 H    0.592717692099   -0.452001817569    5.947044357267
 H    4.260517692099    0.934825182431    0.844632357267
 H    4.452878692099    0.994408182431    3.394311357267
 H   -1.507542307901   -1.095319817569    2.114290357267
 H   -0.523681307901   -0.538973817569    0.769123357267
