17
0 1 
 N    0.197680454411    2.282140399597    0.000000000000
 C   -1.165415645589    2.449351199597    0.000000000000
 N   -1.827240845589    1.307551799597    0.000000000000
 C   -0.828920245589    0.357905999597    0.000000000000
 C    0.436939754411    0.930540399597    0.000000000000
 N    1.613299654411    0.299488299597    0.000000000000
 C    1.455525754411   -1.028692500403    0.000000000000
 N    0.283451054411   -1.727470500403    0.000000000000
 C   -0.872393545589   -1.049348100403    0.000000000000
 N    2.586094054411   -1.772181200403    0.000000000000
 N   -2.042583645589   -1.703703500403    0.000000000000
 H    0.898786654411    3.003374099597    0.000000000000
 H   -1.616275945589    3.427328299597    0.000000000000
 H   -2.084513445589   -2.716940200403    0.000000000000
 H   -2.883011745589   -1.155150300403    0.000000000000
 H    3.458009754411   -1.279759900403    0.000000000000
 H    2.563238554411   -2.781690600403    0.000000000000
