13
0 1 
 N    2.124570631972    0.002485357232   -1.356186424973
 C    1.104363131972    0.001393757232   -0.500030524973
 C    1.347553431972    0.003807257232    0.914185875027
 C    0.261804231972    0.003082457232    1.722587975027
 N   -0.983706468028   -0.000167642768    1.187935375027
 C   -1.216462668028   -0.002746542768   -0.189009624973
 N   -0.129021168028   -0.001847842768   -1.003523824973
 O   -2.380045068028   -0.005525242768   -0.593707124973
 H   -1.805868668028   -0.000782842768    1.770337075027
 H    0.327719331972    0.004966257232    2.800404075027
 H    2.345219731972    0.006317957232    1.321387175027
 H    3.063796531972    0.004600257232   -1.004577724973
 H    1.955678431972    0.000132157232   -2.375268624973
