16
0 1 
 S    2.607027214677    0.829670539952   -0.000193459206
 C    1.093259914677    0.170323439952   -0.000182359206
 N    0.923086714677   -1.214889360048   -0.000123759206
 C   -0.267676585323   -1.890603660048    0.000102840794
 N   -1.438596285323   -1.300716760048   -0.000183759206
 C   -1.327854785323    0.045451339952   -0.000227259206
 C   -0.165802785323    0.818478639952   -0.000150359206
 N   -0.471199685323    2.153498739952   -0.000093359206
 C   -1.793001485323    2.199603939952   -0.000123859206
 N   -2.350594785323    0.949615839952   -0.000216459206
 N   -0.197777085323   -3.245821160048    0.001715040794
 H    1.792360214677   -1.732983460048    0.000109640794
 H   -2.355299085323    3.122033939952   -0.000078259206
 H   -3.333812585323    0.731289339952   -0.000203359206
 H   -1.058785985323   -3.758469560048   -0.000747959206
 H    0.671909114677   -3.740562160048   -0.001276859206
