24
0 1 
 O    0.392793000106   -2.302190013332   -1.650000000000
 C    0.392793000106   -1.074669013332   -1.650000000000
 N    1.604229000106   -0.358285013332   -1.650000000000
 C    1.802080000106    1.013009986668   -1.650000000000
 N    0.606966000106    1.721206986668   -1.650000000000
 C   -0.636316999894    1.129016986668   -1.650000000000
 C   -0.783447999894   -0.214649013332   -1.650000000000
 O    2.900831000106    1.552185986668   -1.650000000000
 H   -1.760327999894   -0.680241013332   -1.650000000000
 H    2.452445000106   -0.919430013332   -1.650000000000
 H    0.708022000106    2.729208986668   -1.650000000000
 H   -1.478120999894    1.813815986668   -1.650000000000
 O   -0.392791999894    2.302189986668    1.650000000000
 C   -0.392792999894    1.074668986668    1.650000000000
 N   -1.604228999894    0.358284986668    1.650000000000
 C   -1.802079999894   -1.013010013332    1.650000000000
 N   -0.606966999894   -1.721207013332    1.650000000000
 C    0.636317000106   -1.129017013332    1.650000000000
 C    0.783448000106    0.214647986668    1.650000000000
 O   -2.900830999894   -1.552185013332    1.650000000000
 H    1.760328000106    0.680239986668    1.650000000000
 H   -2.452444999894    0.919430986668    1.650000000000
 H   -0.708022999894   -2.729209013332    1.650000000000
 H    1.478120000106   -1.813817013332    1.650000000000
