15
0 1 
 O   -0.090113412545   -2.296350217439    0.157901649207
 C   -0.018551412545   -1.096425217439    0.076650649207
 N   -1.153811412545   -0.330312217439   -0.035954350793
 C   -1.218473412545    1.031211782561   -0.135648350793
 N    0.004131587455    1.648422782561   -0.116462350793
 C    1.191330587455    0.965037782561   -0.007041350793
 C    1.252816587455   -0.360997217439    0.089976649207
 O   -2.244757412545    1.639979782561   -0.231513350793
 C    2.526990587455   -1.146810217439    0.211120649207
 H   -0.013368412545    2.639424782561   -0.187505350793
 H   -2.041359412545   -0.819516217439   -0.046970350793
 H    2.070656587455    1.581689782561   -0.005469350793
 H    2.538169587455   -1.723867217439    1.129046649207
 H    2.626727587455   -1.848200217439   -0.609740350793
 H    3.387879587455   -0.487595217439    0.207842649207
