28
0 1 
 O    0.161341613127   -2.606609986851    1.405255704356
 C    0.161341613127   -1.381009986851    1.405255704356
 N    1.405218613127   -0.673122986851    1.405255704356
 C    1.580592613127    0.690446013149    1.405255704356
 N    0.591462613127    1.555290013149    1.405255704356
 C   -0.620353386873    0.929410013149    1.405255704356
 C   -0.921255386873   -0.431726986851    1.405255704356
 N   -2.282357386873   -0.651301986851    1.405255704356
 C   -2.798266386873    0.567070013149    1.405255704356
 N   -1.840050386873    1.554173013149    1.405255704356
 N    2.865025613127    1.147410013149    1.405255704356
 H    2.211491613127   -1.292806986851    1.405255704356
 H   -3.855994386873    0.796857013149    1.405255704356
 H   -1.983460386873    2.557273013149    1.405255704356
 H    3.003654613127    2.146337013149    1.405255704356
 H    3.666294613127    0.537973013149    1.405255704356
 O    2.649546613127    0.113876013149   -1.894744295644
 C    1.460073613127   -0.189479986851   -1.894744295644
 N    0.466534613127    0.807347013149   -1.894744295644
 C   -0.911122386873    0.660181013149   -1.894744295644
 N   -1.302011386873   -0.672876986851   -1.894744295644
 C   -0.420945386873   -1.731253986851   -1.894744295644
 C    0.917404613127   -1.541769986851   -1.894744295644
 O   -1.705102386873    1.591610013149   -1.894744295644
 H    1.609966613127   -2.373292986851   -1.894744295644
 H    0.800660613127    1.767927013149   -1.894744295644
 H   -2.303722386873   -0.824056986851   -1.894744295644
 H   -0.876473386873   -2.716178986851   -1.894744295644
