16
0 1 
 N   -1.162431544677   -0.380582421051   -0.101443154500
 C    0.069568155323   -1.029582221051   -0.211443054500
 O    0.092568055323   -2.234581821051   -0.506443054500
 N    1.184567755323   -0.321582421051   -0.037443154500
 C    1.164567755323    1.049417178949    0.267556745500
 N    2.321567455323    1.633417078949    0.416556745500
 C   -0.087431844677    1.687417078949    0.348556745500
 C   -1.188431544677    0.977417278949    0.174556845500
 H   -2.139431244677    1.524417078949    0.260556745500
 H   -0.207431844677    2.761416778949    0.551556645500
 H    3.164567255323    1.100417178949    0.342556745500
 H    2.365567455323    2.614416778949    0.605556645500
 C   -2.403451244677   -1.130541221051   -0.290407054500
 H   -2.109297244677   -2.150484921051   -0.531945054500
 H   -3.004247044677   -1.122863221051    0.624370645500
 H   -2.988765044677   -0.706766321051   -1.112016854500
