13
0 1 
 C   -1.174615701479   -0.000050170845   -0.348552603386
 N   -1.139979501479   -0.000022670845    1.033388096614
 C    0.018367498521    0.000024029155    1.738359796614
 C    1.205868198521    0.000058229155    1.087842896614
 C    1.165099698521    0.000040829155   -0.339899803386
 N    0.009196598521   -0.000009470845   -1.015225803386
 O   -2.277244101479   -0.000109570845   -0.915809803386
 N    2.296332298521    0.000081429155   -1.042534003386
 H   -2.035605301479   -0.000046170845    1.498581296614
 H   -0.068647501479    0.000031429155    2.814153396614
 H    2.137056498521    0.000084329155    1.629479396614
 H    3.182178998521    0.000091029155   -0.570704603386
 H    2.268522898521    0.000025329155   -2.057790403386
