15
0 1 
 N   -1.578630892700   -2.039631266342    0.178444557275
 C   -1.117664892700   -0.794691266342    0.069526557275
 N   -1.976625892700    0.220909733658   -0.019327442725
 C   -1.510557892700    1.464493733658   -0.128126442725
 N   -0.263932892700    1.863863733658   -0.163066442725
 C    0.581706107300    0.839933733658   -0.073484442725
 C    0.252635107300   -0.489822266342    0.042853557275
 N    1.387059107300   -1.275602266342    0.111600557275
 C    2.353709107300   -0.439754266342    0.038473557275
 N    1.942083107300    0.863121733658   -0.075513442725
 H   -2.267008892700    2.226518733658   -0.194795442725
 H    3.394114107300   -0.694624266342    0.060771557275
 H    2.513027107300    1.672478733658   -0.146322442725
 H   -2.561692892700   -2.216685266342    0.193934557275
 H   -0.935318892700   -2.791622266342    0.244235557275
