13
0 1 
 C    0.542917361913   -1.096521809937    0.000000000000
 N    1.530417361913   -0.121273809937    0.000000000000
 C    1.244843361913    1.201348190063    0.000000000000
 C   -0.023247638087    1.624088190063    0.000000000000
 C   -1.041599638087    0.597081190063    0.000000000000
 N   -0.741239638087   -0.682745809937    0.000000000000
 O    0.881033361913   -2.258009809937    0.000000000000
 N   -2.318510638087    0.942474190063    0.000000000000
 H    2.468465361913   -0.451569809937    0.000000000000
 H    2.083709361913    1.871685190063    0.000000000000
 H   -0.274600638087    2.665587190063    0.000000000000
 H   -2.584014638087    1.897558190063    0.000000000000
 H   -3.034717638087    0.234024190063    0.000000000000
