32
0 1 
 H    3.139482209090    2.675524067618    4.192937049532
 N    2.399393209090    2.018504067618    4.004199049532
 C    1.205393209090    1.856504067618    4.676199049532
 H    1.005989209090    2.396054067618    5.591333049532
 N    0.400393209090    0.982504067618    4.143199049532
 C    1.080393209090    0.559504067618    2.998199049532
 C    0.711393209090   -0.372495932382    1.968199049532
 O   -0.301606790910   -1.062495932382    1.864199049532
 N    1.657393209090   -0.481495932382    0.967199049532
 H    1.431893209090   -1.168393932382    0.228514049532
 C    2.822393209090    0.221504067618    0.939199049532
 N    3.623393209090    0.001504067618   -0.075800950468
 H    3.414230209090   -0.699124932382   -0.787856950468
 H    4.504222209090    0.486919067618   -0.078756950468
 N    3.206393209090    1.082504067618    1.882199049532
 C    2.289393209090    1.214504067618    2.890199049532
 H   -2.199777790910   -2.258169932382   -4.959510950468
 N   -2.547606790910   -1.823495932382   -4.119800950468
 C   -3.693606790910   -2.128495932382   -3.402800950468
 H   -4.452225790910   -2.772242932382   -3.826041950468
 N   -3.803606790910   -1.515495932382   -2.260800950468
 C   -2.612606790910   -0.811495932382   -2.142800950468
 C   -2.116606790910    0.013504067618   -1.077800950468
 O   -2.653606790910    0.324504067618   -0.016800950468
 N   -0.840606790910    0.487504067618   -1.313800950468
 H   -0.482339790910    1.166000067618   -0.620529950468
 C   -0.110606790910    0.197504067618   -2.422800950468
 N    1.079393209090    0.745504067618   -2.510800950468
 H    1.365859209090    1.501422067618   -1.886120950468
 H    1.567860209090    0.614969067618   -3.381079950468
 N   -0.546606790910   -0.554495932382   -3.436800950468
 C   -1.817606790910   -1.030495932382   -3.248800950468
