28
0 1 
 N    0.738505761720   -2.799360573871    1.573009126887
 C    1.199471761720   -1.554420573871    1.464091126887
 N    0.340510761720   -0.538819573871    1.375237126887
 C    0.806578761720    0.704764426129    1.266438126887
 N    2.053203761720    1.104134426129    1.231498126887
 C    2.898842761720    0.080204426129    1.321080126887
 C    2.569771761720   -1.249551573871    1.437418126887
 N    3.704195761720   -2.035331573871    1.506165126887
 C    4.670845761720   -1.199483573871    1.433038126887
 N    4.259219761720    0.103392426129    1.319051126887
 H    0.050127761720    1.466789426129    1.199769126887
 H    5.711250761720   -1.454353573871    1.455336126887
 H    4.830163761720    0.912749426129    1.248242126887
 H   -0.244556238280   -2.976414573871    1.588499126887
 H    1.381817761720   -3.551351573871    1.638800126887
 C   -1.945792238280    1.775484426129   -1.590985873113
 N   -3.177997238280    2.413925426129   -1.609162873113
 C   -4.344868238280    1.737427426129   -1.717051873113
 C   -4.352625238280    0.404114426129   -1.811821873113
 C   -3.061714238280   -0.247748573871   -1.791575873113
 N   -1.940053238280    0.429667426129   -1.685947873113
 O   -0.948182238280    2.452465426129   -1.491767873113
 N   -2.993312238280   -1.565724573871   -1.881344873113
 H   -3.155570238280    3.405609426129   -1.537818873113
 H   -5.241511238280    2.328242426129   -1.721342873113
 H   -5.263261238280   -0.153727573871   -1.898134873113
 H   -3.817529238280   -2.110511573871   -1.962289873113
 H   -2.098557238280   -2.028423573871   -1.868081873113
