15
0 1 
 O    1.422664013007   -1.807300182465   -0.126378578310
 C    0.659471013007   -0.877326182465   -0.061348578310
 N    1.127606013007    0.411529817535    0.028777421690
 C    0.379634013007    1.552599817535    0.108568421690
 N   -0.972260986993    1.333002817535    0.093212421690
 C   -1.531041986993    0.080595817535    0.005636421690
 C   -0.801360986993   -1.029853182465   -0.072014578310
 O    0.852091013007    2.649844817535    0.185295421690
 C   -1.370299986993   -2.416434182465   -0.168973578310
 H   -1.540599986993    2.146143817535    0.150073421690
 H    2.133194013007    0.537615817535    0.037594421690
 H   -2.604889986993    0.062597817535    0.004377421690
 H   -1.040157986993   -3.027620182465    0.663592421690
 H   -1.038721986993   -2.906375182465   -1.077665578310
 H   -2.454250986993   -2.388959182465   -0.167940578310
