31
0 1 
 H    1.447851636686    2.695544251190   -0.091430192634
 N    1.276584636686    2.652416251190    0.901842807366
 C    1.585584636686    3.603416251190    1.837842807366
 H    2.270199636686    4.407193251190    1.605231807366
 N    1.132584636686    3.351416251190    3.040842807366
 C    0.289584636686    2.248416251190    2.831842807366
 C   -0.642415363314    1.567416251190    3.692842807366
 O   -0.907415363314    1.762416251190    4.876842807366
 N   -1.336415363314    0.544416251190    3.065842807366
 H   -2.007877363314    0.071684251190    3.656143807366
 C   -1.133415363314    0.170416251190    1.767842807366
 N   -1.783415363314   -0.874583748810    1.306842807366
 H   -2.351895363314   -1.440647748810    1.914188807366
 H   -1.605862363314   -1.222153748810    0.355773807366
 N   -0.273415363314    0.767416251190    0.949842807366
 C    0.388584636686    1.814416251190    1.526842807366
 H   -2.059272363314   -2.963588748810   -4.310915192634
 N   -1.614415363314   -2.549583748810   -3.506157192634
 C   -2.122415363314   -2.428583748810   -2.233157192634
 H   -3.142421363314   -2.706855748810   -2.010015192634
 N   -1.285415363314   -1.922583748810   -1.365157192634
 C   -0.122415363314   -1.729583748810   -2.122157192634
 C    1.164584636686   -1.200583748810   -1.862157192634
 N    1.543584636686   -0.664583748810   -0.720157192634
 H    2.479917636686   -0.290621748810   -0.703714192634
 H    0.861477636686   -0.307804748810   -0.047205192634
 N    2.103584636686   -1.173583748810   -2.810157192634
 C    1.784584636686   -1.629583748810   -4.013157192634
 H    2.568771636686   -1.590338748810   -4.764549192634
 N    0.620584636686   -2.127583748810   -4.416157192634
 C   -0.301415363314   -2.153583748810   -3.412157192634
