32
0 1 
 O   -0.497932000000    1.624999000000    1.618791944699
 C   -1.359509000000    1.624999000000    0.768215944699
 N   -0.998739000000    1.624999000000   -0.578808055301
 C   -1.857717000000    1.624999000000   -1.634109055301
 N   -3.154559000000    1.624999000000   -1.506565055301
 C   -3.546880000000    1.624999000000   -0.220368055301
 C   -2.778273000000    1.624999000000    0.917577944699
 N   -3.576976000000    1.624999000000    2.044425944699
 C   -4.771376000000    1.624999000000    1.594880944699
 N   -4.826976000000    1.624999000000    0.218803944699
 N   -1.304092000000    1.624999000000   -2.849783055301
 H   -0.007239000000    1.624999000000   -0.758770055301
 H   -5.662821000000    1.624999000000    2.188665944699
 H   -5.635919000000    1.624999000000   -0.356405055301
 H   -1.920940000000    1.624999000000   -3.625654055301
 H   -0.314039000000    1.624999000000   -2.996052055301
 O    0.497932000000   -1.624999000000    1.618791944699
 C    1.359509000000   -1.624999000000    0.768215944699
 N    0.998739000000   -1.624999000000   -0.578808055301
 C    1.857717000000   -1.624999000000   -1.634109055301
 N    3.154559000000   -1.624999000000   -1.506565055301
 C    3.546880000000   -1.624999000000   -0.220368055301
 C    2.778273000000   -1.624999000000    0.917577944699
 N    3.576976000000   -1.624999000000    2.044425944699
 C    4.771376000000   -1.624999000000    1.594880944699
 N    4.826976000000   -1.624999000000    0.218803944699
 N    1.304092000000   -1.624999000000   -2.849783055301
 H    0.007239000000   -1.624999000000   -0.758770055301
 H    5.662821000000   -1.624999000000    2.188665944699
 H    5.635919000000   -1.624999000000   -0.356405055301
 H    1.920940000000   -1.624999000000   -3.625654055301
 H    0.314039000000   -1.624999000000   -2.996052055301
