29
0 1 
 H    2.037997303945    0.972304847241    2.387613986556
 N    1.297908303945    0.315284847241    2.198875986556
 C    0.103908303945    0.153284847241    2.870875986556
 H   -0.095495696055    0.692834847241    3.786009986556
 N   -0.701091696055   -0.720715152759    2.337875986556
 C   -0.021091696055   -1.143715152759    1.192875986556
 C   -0.390091696055   -2.075715152759    0.162875986556
 O   -1.403091696055   -2.765715152759    0.058875986556
 N    0.555908303945   -2.184715152759   -0.838124013444
 H    0.330408303945   -2.871613152759   -1.576809013444
 C    1.720908303945   -1.481715152759   -0.866124013444
 N    2.521908303945   -1.701715152759   -1.881124013444
 H    2.312745303945   -2.402344152759   -2.593180013444
 H    3.402737303945   -1.216300152759   -1.884080013444
 N    2.104908303945   -0.620715152759    0.076875986556
 C    1.187908303945   -0.488715152759    1.084875986556
 H    1.136154303945    3.141091847241   -1.175708013444
 N    0.336908303945    2.614284847241   -0.856124013444
 C   -0.403091696055    2.983284847241    0.239875986556
 H   -0.049794696055    3.851589847241    0.781946986556
 C   -1.479091696055    2.260284847241    0.633875986556
 H   -2.048591696055    2.540917847241    1.507919986556
 C   -1.857091696055    1.166284847241   -0.196124013444
 N   -2.891091696055    0.427284847241    0.114875986556
 H   -3.220024696055   -0.297866152759   -0.548301013444
 H   -3.476366696055    0.665047847241    0.898640986556
 N   -1.190091696055    0.825284847241   -1.285124013444
 C   -0.085091696055    1.531284847241   -1.640124013444
 O    0.517908303945    1.182284847241   -2.656124013444
