29
0 1 
 H    3.607083936917    0.226392107051   -0.065318584052
 N    2.807837936917   -0.300414892949    0.254265415948
 C    2.067837936917    0.068585107051    1.350265415948
 H    2.421134936917    0.936890107051    1.892336415948
 C    0.991837936917   -0.654414892949    1.744265415948
 H    0.422337936917   -0.373781892949    2.618309415948
 C    0.613837936917   -1.748414892949    0.914265415948
 N   -0.420162063083   -2.487414892949    1.225265415948
 H   -0.749095063083   -3.212565892949    0.562088415948
 H   -1.005437063083   -2.249651892949    2.009030415948
 N    1.280837936917   -2.089414892949   -0.174734584052
 C    2.385837936917   -1.383414892949   -0.529734584052
 O    2.988837936917   -1.732414892949   -1.545734584052
 H    0.442104936917    2.096713107051   -2.723007584052
 N    0.270837936917    2.053585107051   -1.729734584052
 C    0.579837936917    3.004585107051   -0.793734584052
 H    1.264452936917    3.808362107051   -1.026345584052
 N    0.126837936917    2.752585107051    0.409265415948
 C   -0.716162063083    1.649585107051    0.200265415948
 C   -1.648162063083    0.968585107051    1.061265415948
 O   -1.913162063083    1.163585107051    2.245265415948
 N   -2.342162063083   -0.054414892949    0.434265415948
 H   -3.013624063083   -0.527146892949    1.024566415948
 C   -2.139162063083   -0.428414892949   -0.863734584052
 N   -2.789162063083   -1.473414892949   -1.324734584052
 H   -3.357642063083   -2.039478892949   -0.717388584052
 H   -2.611609063083   -1.820984892949   -2.275803584052
 N   -1.279162063083    0.168585107051   -1.681734584052
 C   -0.617162063083    1.215585107051   -1.104734584052
