17
0 1 
 N    1.714888425232    0.329014379845   -2.015598098193
 C    1.047182025232    0.126531179845   -0.864941398193
 N    1.720895825232   -0.059136620155    0.277973101807
 C    1.025384125232   -0.230358920155    1.436949501807
 N   -0.300435474768   -0.231129420155    1.597705001807
 C   -0.931829674768   -0.049779120155    0.434066901807
 C   -0.359154174768    0.134030979845   -0.819806698193
 N   -1.308604274768    0.284995979845   -1.806774098193
 C   -2.449790774768    0.195354279845   -1.148603798193
 N   -2.283096974768   -0.004382820155    0.199512701807
 N    1.782254225232   -0.474569920155    2.547961801807
 H   -3.427998574768    0.267204179845   -1.593292598193
 H   -3.004853074768   -0.106820220155    0.892764401807
 H    2.700994625232    0.087797879845   -2.071097098193
 H    1.163336825232    0.321460779845   -2.855764998193
 H    1.274506525232   -0.377201420155    3.410036101807
 H    2.734542825232   -0.128884320155    2.549394501807
