28
0 1 
 H    3.340948710995    2.103625042331    2.649740117815
 N    2.541702710995    1.576818042331    2.969324117815
 C    1.801702710995    1.945818042331    4.065324117815
 H    2.154999710995    2.814123042331    4.607395117815
 C    0.725702710995    1.222818042331    4.459324117815
 H    0.156202710995    1.503451042331    5.333368117815
 C    0.347702710995    0.128818042331    3.629324117815
 N   -0.686297289005   -0.610181957669    3.940324117815
 H   -1.015230289005   -1.335332957669    3.277147117815
 H   -1.271572289005   -0.372418957669    4.724089117815
 N    1.014702710995   -0.212181957669    2.540324117815
 C    2.119702710995    0.493818042331    2.185324117815
 O    2.722702710995    0.144818042331    1.169324117815
 H   -3.331154289005   -1.685186957669   -4.227433882185
 N   -2.886297289005   -1.271181957669   -3.422675882185
 C   -3.394297289005   -1.150181957669   -2.149675882185
 H   -4.414303289005   -1.428453957669   -1.926533882185
 N   -2.557297289005   -0.644181957669   -1.281675882185
 C   -1.394297289005   -0.451181957669   -2.038675882185
 C   -0.107297289005    0.077818042331   -1.778675882185
 N    0.271702710995    0.613818042331   -0.636675882185
 H    1.208035710995    0.987780042331   -0.620232882185
 H   -0.410404289005    0.970597042331    0.036276117815
 N    0.831702710995    0.104818042331   -2.726675882185
 C    0.512702710995   -0.351181957669   -3.929675882185
 H    1.296889710995   -0.311936957669   -4.681067882185
 N   -0.651297289005   -0.849181957669   -4.332675882185
 C   -1.573297289005   -0.875181957669   -3.328675882185
