13
0 1 
 C   -1.240690993352    0.000360719492   -0.055621899586
 N   -0.840211393352   -0.000228280508    1.294433400414
 C    0.455618406648   -0.000749980508    1.684982200414
 C    1.443760206648   -0.000675080508    0.758727300414
 C    1.035605206648   -0.000040680508   -0.617887499586
 N   -0.237163993352    0.000445819492   -0.985659199586
 O   -2.431888393352    0.000725719492   -0.326508899586
 N    1.961399006648    0.000074019492   -1.585923799586
 H   -1.590712493352   -0.000249580508    1.966511700414
 H    0.644065706648   -0.001167180508    2.748613800414
 H    2.481315206648   -0.001080280508    1.049200700414
 H    2.933367806648   -0.000384980508   -1.341851699586
 H    1.671209106648    0.000470619492   -2.572846799586
