30
0 1 
 N   -1.274492104160   -0.001795257504   -1.378265875281
 C   -2.115277004160   -0.001517857504   -0.338187475281
 N   -1.637593604160   -0.003324757504    0.919872024719
 C   -2.507405204160   -0.003066957504    1.950565524719
 N   -3.837152204160   -0.001251257504    1.923941524719
 C   -4.282818104160    0.000584942496    0.660153624719
 C   -3.515595204160    0.000643442496   -0.503423675281
 N   -4.298440704160    0.002821142496   -1.634105075281
 C   -5.530512104160    0.004093142496   -1.153644775281
 N   -5.581118304160    0.002791942496    0.213360524719
 H   -2.052887704160   -0.004585157504    2.933463324719
 H   -6.425335804160    0.005981842496   -1.753316275281
 H   -6.404539004160    0.003396242496    0.792018624719
 H   -0.259692504160   -0.002976457504   -1.240609775281
 H   -1.672876704160   -0.000058757504   -2.300047075281
 N    1.273408695840   -0.001799057504    1.376540924719
 C    2.114978195840   -0.001519357504    0.337110224719
 N    1.638265795840   -0.003324357504   -0.921322175281
 C    2.508905795840   -0.003064157504   -1.951324575281
 N    3.838638095840   -0.001247657504   -1.923638275281
 C    4.283302495840    0.000586642496   -0.659493675281
 C    3.515155395840    0.000642642496    0.503465324719
 N    4.297079295840    0.002818842496    1.634778524719
 C    5.529536395840    0.004092442496    1.155316124719
 N    5.581242795840    0.002793642496   -0.211650775281
 H    2.055178995840   -0.004581257504   -2.934588875281
 H    6.423874395840    0.005980642496    1.755711424719
 H    6.405131895840    0.003399442496   -0.789641175281
 H    0.258721095840   -0.002979157504    1.238946224719
 H    1.671456895840   -0.000064457504    2.298463324719
