17
0 1 
 N   -1.922697082787   -0.056766473071    0.120893079752
 C   -1.984063582787   -1.421151573071    0.081479779752
 N   -0.671491782787   -1.853904473071   -0.013935220248
 C    0.184610417213   -0.779781773071   -0.030281520248
 C   -0.604226082787    0.346257126929    0.055855479752
 O   -2.986133982787   -2.150922173071    0.124523679752
 C   -0.010305982787    1.642335326929    0.049474979752
 N    1.401776217213    1.495376326929   -0.045842320248
 C    2.097959417213    0.325880926929   -0.114130620248
 N    1.535328817213   -0.853756973071   -0.101691920248
 O   -0.522014582787    2.747462626929    0.103339179752
 N    3.464754917213    0.432650626929   -0.266152120248
 H    3.903127917213    1.172393626929    0.259111379752
 H    3.919038017213   -0.457760673071   -0.135626320248
 H   -0.412378482787   -2.824636773071   -0.054879020248
 H   -2.771438882787    0.538292126929    0.198799679752
 H    1.896264417213    2.373528026929   -0.126788320248
