16
0 1 
 H    1.390802349369    2.152914050330    1.851803164637
 N    0.650713349369    1.495894050330    1.663065164637
 C   -0.543286650631    1.333894050330    2.335065164637
 H   -0.742690650631    1.873444050330    3.250199164637
 N   -1.348286650631    0.459894050330    1.802065164637
 C   -0.668286650631    0.036894050330    0.657065164637
 C   -1.037286650631   -0.895105949670   -0.372934835363
 O   -2.050286650631   -1.585105949670   -0.476934835363
 N   -0.091286650631   -1.004105949670   -1.373934835363
 H   -0.316786650631   -1.691003949670   -2.112619835363
 C    1.073713349369   -0.301105949670   -1.401934835363
 N    1.874713349369   -0.521105949670   -2.416934835363
 H    1.665550349369   -1.221734949670   -3.128990835363
 H    2.755542349369   -0.035690949670   -2.419890835363
 N    1.457713349369    0.559894050330   -0.458934835363
 C    0.540713349369    0.691894050330    0.549065164637
