31
0 1 
 N   -1.467770712368   -1.425839159538    1.859640751268
 C   -1.006804712368   -0.180899159538    1.750722751268
 N   -1.865765712368    0.834701840462    1.661868751268
 C   -1.399697712368    2.078285840462    1.553069751268
 N   -0.153072712368    2.477655840462    1.518129751268
 C    0.692566287632    1.453725840462    1.607711751268
 C    0.363495287632    0.123969840462    1.724049751268
 N    1.497919287632   -0.661810159538    1.792796751268
 C    2.464569287632    0.174037840462    1.719669751268
 N    2.052943287632    1.476913840462    1.605682751268
 H   -2.156148712368    2.840310840462    1.486400751268
 H    3.504974287632   -0.080832159538    1.741967751268
 H    2.623887287632    2.286270840462    1.534873751268
 H   -2.450832712368   -1.602893159538    1.875130751268
 H   -0.824458712368   -2.177830159538    1.925431751268
 O   -2.560608712368   -1.442820159538   -1.313311248732
 C   -1.480762712368   -0.903426159538   -1.407020248732
 N   -1.410237712368    0.485553840462   -1.508958248732
 C   -0.270033712368    1.219859840462   -1.619567248732
 N    0.923298287632    0.696949840462   -1.643922248732
 C    0.901426287632   -0.644137159538   -1.547875248732
 C   -0.178255712368   -1.484813159538   -1.432850248732
 N    0.234986287632   -2.800782159538   -1.360957248732
 C    1.508064287632   -2.744782159538   -1.430388248732
 N    1.983207287632   -1.457318159538   -1.545949248732
 N   -0.423101712368    2.544080840462   -1.705424248732
 H   -2.297296712368    0.963513840462   -1.497172248732
 H    2.173035287632   -3.584087159538   -1.405178248732
 H    2.928525287632   -1.162692159538   -1.615415248732
 H    0.401236287632    3.088502840462   -1.786349248732
 H   -1.319125712368    2.989647840462   -1.690883248732
