16
0 1 
 O   -2.461487731291   -0.894023687971    0.189859823437
 C   -1.381641731291   -0.354629687971    0.096150823437
 N   -1.311116731291    1.034350312029   -0.005787176563
 C   -0.170912731291    1.768656312029   -0.116396176563
 N    1.022419268709    1.245746312029   -0.140751176563
 C    1.000547268709   -0.095340687971   -0.044704176563
 C   -0.079134731291   -0.936016687971    0.070320823437
 N    0.334107268709   -2.251985687971    0.142213823437
 C    1.607185268709   -2.195985687971    0.072782823437
 N    2.082328268709   -0.908521687971   -0.042778176563
 N   -0.323980731291    3.092877312029   -0.202253176563
 H   -2.198175731291    1.512310312029    0.005998823437
 H    2.272156268709   -3.035290687971    0.097992823437
 H    3.027646268709   -0.613895687971   -0.112244176563
 H    0.500357268709    3.637299312029   -0.283178176563
 H   -1.220004731291    3.538444312029   -0.187712176563
