15
0 1 
 N    2.111125786333   -0.060600651823   -1.509993443099
 C    1.311461386333   -0.034847651823   -0.437173343099
 N    1.840582086333   -0.053371751823    0.798182756901
 C    1.012527786333   -0.034232651823    1.862600656901
 N   -0.316837813667    0.001323348177    1.889771056901
 C   -0.813099513667    0.018851848177    0.645484656901
 C   -0.093000613667    0.004089248177   -0.547914043099
 N   -0.919963713667    0.033471548177   -1.646530943099
 C   -2.131404913667    0.065266048177   -1.116877343099
 N   -2.127598013667    0.058034348177    0.250934356901
 H    1.504901886333   -0.050792351823    2.827181556901
 H   -3.049095913667    0.093993948177   -1.680128643099
 H   -2.926940413667    0.078422048177    0.862111156901
 H    3.126574286333   -0.045697551823   -1.405687643099
 H    1.680003686333   -0.009895651823   -2.415170843099
