15
0 1 
 O   -0.086061201620   -2.301927540108    0.000000127934
 C   -0.016584201620   -1.099132540108    0.000000127934
 N   -1.154734201620   -0.329042540108    0.000000127934
 C   -1.221954201620    1.036003459892    0.000000127934
 N    0.001142798380    1.652536459892    0.000000127934
 C    1.191149798380    0.965286459892    0.000000127934
 C    1.255125798380   -0.364175540108    0.000000127934
 O   -2.250699201620    1.648157459892    0.000000127934
 C    2.532408798380   -1.154267540108    0.000000127934
 H   -0.018180201620    2.646048459892    0.000000127934
 H   -2.042564201620   -0.817857540108    0.000000127934
 H    2.070515798380    1.581882459892    0.000000127934
 H    2.589552798380   -1.794590540108    0.873172127934
 H    2.588692798380   -1.795851540108   -0.872301872066
 H    3.393191798380   -0.494905540108   -0.000885872066
