31
0 1 
 O   -1.773982442012   -1.454665688426    1.595009368916
 C   -2.537175442012   -0.525968688426    1.676260368916
 N   -2.069040442012    0.761118311574    1.788865368916
 C   -2.817012442012    1.900622311574    1.888559368916
 N   -4.168907442012    1.681326311574    1.869373368916
 C   -4.727688442012    0.430639311574    1.759952368916
 C   -3.998007442012   -0.678285688426    1.662934368916
 O   -2.344555442012    2.996360311574    1.984424368916
 C   -4.566946442012   -2.062963688426    1.541790368916
 H   -4.737246442012    2.493351311574    1.940416368916
 H   -1.063452442012    0.887032311574    1.799881368916
 H   -5.801536442012    0.412665311574    1.758380368916
 H   -4.236804442012   -2.688586688426    2.363563368916
 H   -4.235368442012   -2.536971688426    0.624686368916
 H   -5.650897442012   -2.035510688426    1.543302368916
 O    0.205948557988   -1.186208688426   -1.272853631084
 C    1.285794557988   -0.646814688426   -1.366562631084
 N    1.356319557988    0.742165311574   -1.468500631084
 C    2.496523557988    1.476471311574   -1.579109631084
 N    3.689855557988    0.953561311574   -1.603464631084
 C    3.667983557988   -0.387525688426   -1.507417631084
 C    2.588301557988   -1.228201688426   -1.392392631084
 N    3.001543557988   -2.544170688426   -1.320499631084
 C    4.274621557988   -2.488170688426   -1.389930631084
 N    4.749764557988   -1.200706688426   -1.505491631084
 N    2.343455557988    2.800692311574   -1.664966631084
 H    0.469260557988    1.220125311574   -1.456714631084
 H    4.939592557988   -3.327475688426   -1.364720631084
 H    5.695082557988   -0.906080688426   -1.574957631084
 H    3.167793557988    3.345114311574   -1.745891631084
 H    1.447431557988    3.246259311574   -1.650425631084
