29
0 1 
 O   -1.239080761126   -2.548993212839    0.654794295738
 C   -1.028520261126   -1.371399412839    0.900766995738
 N   -0.031914261126   -0.994893912839    1.824725195738
 C    0.384101438874    0.270739487161    2.118118295738
 N   -0.191091661126    1.351386987161    1.652672895738
 C   -1.209293661126    1.051421287161    0.808825595738
 C   -1.656571461126   -0.191451212839    0.370506995738
 N   -2.654221161126   -0.063845912839   -0.566251504262
 C   -2.817796461126    1.243248787161   -0.680479904262
 N   -1.975428861126    1.957500287161    0.128959795738
 N    1.452482238874    0.355946387161    2.987163995738
 H    0.486548738874   -1.769468312839    2.217369295738
 H   -3.533904661126    1.725401387161   -1.324188004262
 H   -1.913945161126    2.958158587161    0.218076495738
 H    1.729802738874    1.322580987161    3.079643995738
 H    2.237591538874   -0.190089112839    2.647534395738
 C    2.212274138874   -0.059025012839   -0.464651004262
 N    2.120494538874    1.182316587161   -1.116998804262
 C    1.200335538874    1.455368087161   -2.071198504262
 C    0.329958838874    0.491791287161   -2.461694304262
 C    0.462556638874   -0.781752912839   -1.819616704262
 N    1.365807338874   -1.041208612839   -0.892064504262
 O    3.020330138874   -0.185109412839    0.451530495738
 N   -0.364635061126   -1.792199512839   -2.187133404262
 H    2.752194238874    1.892881987161   -0.783363904262
 H    1.207732638874    2.453223987161   -2.485010304262
 H   -0.409161861126    0.675706087161   -3.223748004262
 H   -1.262031561126   -1.514415712839   -2.550695304262
 H   -0.417210161126   -2.541715412839   -1.509715904262
