14
1 1 
 N    0.042525888717    0.000015456403    0.950654517934
 C   -1.187192311283    0.000036256403    0.384382017934
 C   -1.273238011283    0.000014356403   -1.038753582066
 C   -0.117886511283   -0.000013643597   -1.744571182066
 N    1.089315188717   -0.000012643597   -1.119445682066
 C    1.234966388717   -0.000027943597    0.253271017934
 O    2.323894688717   -0.000074243597    0.798554917934
 N   -2.238078011283    0.000074556403    1.169645817934
 H    1.950375188717   -0.000050143597   -1.647000082066
 H   -0.097186911283   -0.000035943597   -2.824078782066
 H   -2.228401611283    0.000002156403   -1.535537482066
 H   -3.153924511283    0.000056256403    0.752166717934
 H   -2.136891311283    0.000020756403    2.213434617934
 H    0.149621088717    0.000002756403    2.009289517934
