13

   N     -0.67476     -0.51787      0.98311
   C     -1.49825      0.29546      0.08991
   C      0.74914     -0.43233      0.65411
   H     -0.80687     -0.19226      1.94022
   H     -1.19073      1.35191      0.05239
   H     -2.54124      0.24341      0.41020
   H     -1.43056     -0.11268     -0.92212
   H      1.31348     -1.04910      1.35565
   H      1.14102      0.59580      0.67110
   H      0.90071     -0.83707     -0.35025
   O     -0.48729     -3.34405      1.59783
   H     -0.56185     -3.87683      0.79307
   H     -0.74401     -2.43980      1.31248
