26

   C      0.66997     -0.26472     -1.71252
   C      0.48797      1.18120     -2.16814
   C      2.13352     -0.54642     -1.38087
   C     -0.23165     -0.58064     -0.52123
   H      0.38354     -0.91795     -2.54733
   H      0.77590      1.87284     -1.36767
   H      1.10549      1.39422     -3.04561
   H     -0.55587      1.38555     -2.42928
   H      2.46904      0.09557     -0.55791
   H      2.77306     -0.35682     -2.24786
   H      2.27662     -1.58803     -1.07400
   H      0.02740      0.05539      0.33300
   H     -0.12461     -1.62416     -0.20737
   H     -1.28520     -0.40566     -0.76266
   C      2.61040     -1.73580     -5.01348
   H      2.92212     -2.72467     -4.68549
   C      1.27220     -1.49619     -5.33623
   H      0.54300     -2.29982     -5.26343
   C      0.87219     -0.22609     -5.75964
   H     -0.16899     -0.03988     -6.01249
   C      1.81006      0.80496     -5.85814
   H      1.49895      1.79278     -6.19006
   C      3.14798      0.56595     -5.53360
   H      3.87812      1.36810     -5.61152
   C      3.54813     -0.70452     -5.11150
   H      4.59016     -0.89189     -4.86285
