26

   C      0.22766      0.23771     -0.96694
   C      0.14040      1.75485     -1.12135
   C      1.15347     -0.35783     -2.02590
   C      0.67888     -0.14638      0.44001
   H     -0.77794     -0.17223     -1.12971
   H      1.12657      2.20865     -0.94701
   H     -0.20628      2.02409     -2.12425
   H     -0.54750      2.19638     -0.39326
   H      2.17696      0.01503     -1.89027
   H      0.81800     -0.09211     -3.03283
   H      1.19070     -1.44922     -1.95192
   H      1.68219      0.24718      0.64032
   H      0.71490     -1.23358      0.56132
   H      0.00145      0.25738      1.19920
   N      1.75562      2.65732     -6.27564
   H      1.12999      2.45782     -7.05239
   C      2.99120      3.24365     -6.61562
   O      3.26349      3.48568     -7.78765
   C      3.83943      3.50269     -5.46060
   H      4.80999      3.95172     -5.62486
   C      3.40567      3.18255     -4.22047
   H      3.99804      3.35466     -3.32743
   N      2.17188      2.61165     -4.00774
   H      1.85598      2.37414     -3.07414
   C      1.27530      2.31565     -5.02419
   O      0.17724      1.80457     -4.82498
