20

   N      0.47107      0.32678      0.28313
   C      0.10410     -1.00683      0.75040
   C     -0.73251      1.11458      0.03297
   C      1.26651      0.22767     -0.93335
   H     -0.49178     -0.92672      1.66281
   H      1.01263     -1.57777      0.96653
   H     -0.47894     -1.56672     -0.00504
   H     -1.31911      1.19408      0.95183
   H     -1.36707      0.66627     -0.75477
   H     -0.44621      2.11864     -0.29547
   H      1.55391      1.22865     -1.26809
   H      0.71997     -0.26864     -1.75658
   H      2.17613     -0.34583     -0.73233
   C     -3.54338      0.38450      5.09373
   C     -2.62421      0.30588      3.85974
   O     -1.89620     -0.72592      3.74613
   O     -2.69431      1.29335      3.06519
   H     -4.58922      0.42325      4.77206
   H     -3.40477     -0.47275      5.75615
   H     -3.34472      1.30681      5.64856
