21

   N      0.40052     -0.08063     -1.08289
   C     -0.73885      0.87122     -0.97577
   C      1.63849      0.45996     -0.46485
   C      0.03686     -1.41351     -0.52896
   H      0.57454     -0.22512     -2.12329
   H     -0.98420      1.01638      0.07695
   H     -0.44243      1.81766     -1.42760
   H     -1.57640      0.43885     -1.52097
   H      1.46778      0.60909      0.60196
   H      2.44612     -0.25446     -0.62108
   H      1.88188      1.40797     -0.94341
   H     -0.81993     -1.77776     -1.09352
   H      0.88619     -2.08429     -0.65643
   H     -0.20286     -1.30605      0.52939
   P     -0.63449     -1.06217     -4.24751
   O      0.68573     -0.50044     -3.72408
   O     -1.14882     -0.08824     -5.47231
   O     -1.79987     -1.28391     -3.32583
   O     -0.31090     -2.49305     -4.99692
   H     -0.38335      0.35908     -5.87743
   H      0.61708     -2.50128     -5.29517
