17

   N      0.01942     -0.13146     -0.64796
   C      1.09866      0.81909     -0.25389
   C      0.27302     -1.49821     -0.10921
   C     -1.32389      0.37349     -0.24341
   H      0.02294     -0.19949     -1.69387
   H      1.10467      0.91019      0.83202
   H      2.05214      0.42841     -0.60648
   H      0.89502      1.78453     -0.71459
   H      0.27645     -1.44941      0.97943
   H     -0.51926     -2.15991     -0.45623
   H      1.23817     -1.84289     -0.47791
   H     -1.47727      1.35168     -0.69677
   H     -2.07867     -0.32722     -0.59756
   H     -1.35610      0.44847      0.84337
   O     -0.04502     -0.26600     -3.43622
   H      0.84321     -0.23325     -3.83189
   H     -0.41439     -1.10952     -3.75033
