18

   N      1.75210     -0.17672      1.08929
   C     -0.69833     -0.05337      0.11415
   C      0.65850     -0.12061      0.65445
   H     -0.94934     -0.99397     -0.37997
   H     -0.77045      0.75931     -0.61124
   H     -1.41191      0.12576      0.92071
   C      4.27460      2.04284      2.87806
   H      3.31050      1.83613      2.40836
   H      4.76238      2.87086      2.35837
   H      4.11578      2.35272      3.91361
   C      5.21049      0.84930      2.86952
   O      6.34192      0.91361      3.36197
   N      4.70376     -0.27178      2.28516
   H      3.76508     -0.24954      1.90179
   C      5.47109     -1.49679      2.19618
   H      6.43703     -1.30704      2.66359
   H      4.96912     -2.31458      2.72248
   H      5.62559     -1.78962      1.15303
