18

   N      0.20918     -1.12888      0.78762
   C     -0.99750     -0.66443      0.06841
   C      1.31979     -0.15160      0.81980
   H     -0.02621     -1.46908      1.75851
   H      0.53637     -2.06069      0.42913
   H     -1.37503      0.23697      0.55032
   H     -0.73735     -0.45300     -0.96844
   H     -1.74796     -1.45313      0.11193
   H      2.15028     -0.59544      1.36782
   H      1.62536      0.07733     -0.20073
   H      0.98309      0.75490      1.32192
   C      0.53534     -5.14692      2.85337
   C      0.43707     -3.80103      2.14331
   O      0.80632     -3.74596      0.92582
   O     -0.02880     -2.83360      2.83388
   H     -0.47168     -5.51564      3.07085
   H      1.06051     -5.87937      2.23894
   H      1.05153     -5.02540      3.80914
