25

   N     -0.22242      0.47181      0.87204
   C     -1.06170     -0.70877      0.68068
   C     -0.62090      1.53185     -0.05051
   C      1.18487      0.12922      0.68305
   H     -2.10752     -0.44340      0.85690
   H     -0.77262     -1.48030      1.39928
   H     -0.97176     -1.12533     -0.33710
   H     -1.66405      1.80044      0.13505
   H     -0.51724      1.22789     -1.10615
   H     -0.00025      2.41514      0.12003
   H      1.80121      1.01582      0.85198
   H      1.38926     -0.25281     -0.33174
   H      1.47217     -0.63581      1.40894
   C      0.64665      3.03650      3.62669
   H      0.78229      2.66623      2.60803
   H      1.60899      3.03753      4.14405
   H      0.29031      4.06882      3.59366
   C     -0.33712      2.20833      4.43208
   O     -0.60344      2.49278      5.60528
   N     -0.88063      1.15651      3.76132
   H     -0.61312      0.98145      2.78827
   C     -1.83674      0.27410      4.39786
   H     -1.97941      0.62909      5.41856
   H     -2.79852      0.28958      3.87454
   H     -1.46682     -0.75619      4.42413
