20

   N      0.40073      0.21222      0.29318
   C     -0.03751     -1.15993      0.52860
   C     -0.75735      1.06171      0.03458
   C      1.32287      0.26061     -0.83359
   H     -0.74211     -1.17001      1.36314
   H      0.82752     -1.78231      0.77704
   H     -0.53367     -1.59890     -0.35699
   H     -1.43987      1.00028      0.88501
   H     -1.30388      0.75948     -0.87814
   H     -0.43017      2.09808     -0.09225
   H      1.65996      1.28958     -0.98875
   H      0.86244     -0.09822     -1.77250
   H      2.19620     -0.36259     -0.62048
   P     -3.78910     -0.22845      3.65779
   O     -2.44671     -0.20342      2.96013
   O     -3.76168     -1.45373      4.77821
   O     -5.10083     -0.34388      2.93447
   O     -3.89510      1.12719      4.61102
   H     -2.83478     -1.63479      5.01556
   H     -2.99326      1.44008      4.80317
