12
0 1 
 C   -0.112736021987   -1.527536894102   -1.148564624487
 C    0.298263978013    1.012463105898    1.674435375513
 C   -0.087736021987   -0.182536894102   -0.422564624487
 O   -0.363736021987    0.861463105898   -1.019564624487
 N    0.266263978013   -0.199536894102    0.862435375513
 H    0.073263978013   -1.338536894102   -2.207564624487
 H    0.482263978013   -1.084536894102    1.304435375513
 H   -0.684736021987    1.480463105898    1.607435375513
 H    0.652573978013   -2.209646894102   -0.749791624487
 H   -1.117776021987   -1.959086894102   -1.031715624487
 H    0.471293978013    0.770503105898    2.733451875513
 H    1.031913978013    1.747563105898    1.311952175513
