12
0 1 
 C   -0.917052341250   -0.895695470826    1.486082615733
 C    1.375947658750    0.941304529174   -0.938917384267
 C    0.165947658750    0.200304529174   -0.380917384267
 O   -0.806052341250   -0.032695470826   -1.097917384267
 N    0.213947658750   -0.179695470826    0.893082615733
 H    1.057947658750   -0.004695470826    1.433082615733
 H   -1.207052341250   -1.718695470826    0.830082615733
 H    1.035947658750    1.489304529174   -1.820917384267
 H   -0.669142341250   -1.317428470826    2.471314615733
 H   -1.787002341250   -0.229503470826    1.582904615733
 H    1.801167658750    1.645746529174   -0.208886384267
 H    2.148207658750    0.222873529174   -1.251122384267
