12
0 1 
 C    0.305405714082    1.881639256204    0.052898608539
 C   -1.025594285918   -1.692360743796    0.080898608539
 C    0.296405714082    0.361639256204   -0.033101391461
 O    1.338405714082   -0.259360743796   -0.187101391461
 N   -0.876594285918   -0.242360743796    0.083898608539
 H   -0.716594285918    2.240639256204    0.038898608539
 H   -1.704594285918    0.332639256204    0.217898608539
 H   -0.095594285918   -2.172360743796   -0.218101391461
 H    0.785863714082    2.217209256204    0.983788608539
 H    0.818773714082    2.335749256204   -0.807471391461
 H   -1.317223285918   -2.090680743796    1.063898608539
 H   -1.786483285918   -1.939190743796   -0.674161391461
