24
0 1 
 C    0.728156697582   -0.197079172809   -3.643540309415
 C    1.839156697582    1.956920827191   -0.717540309415
 C    0.912156697582    0.256920827191   -2.197540309415
 O    0.312156697582   -0.323079172809   -1.279540309415
 N    1.708156697582    1.300920827191   -2.002540309415
 H    1.408156697582    0.364920827191   -4.284540309415
 H    2.242156697582    1.669920827191   -2.784540309415
 H    1.121156697582    1.544920827191   -0.015540309415
 H    0.922878697582   -1.277447172809   -3.713459309415
 H   -0.301858302418    0.034119827191   -3.952759309415
 H    2.853447697582    1.825344827191   -0.312690309415
 H    1.638803697582    3.032727827191   -0.829330309415
 C   -2.730843302418   -0.284079172809    0.881459690585
 C    0.760156697582   -0.676079172809    2.359459690585
 C   -0.758843302418   -0.691079172809    2.267459690585
 O   -1.443843302418   -0.974079172809    3.248459690585
 N   -1.284843302418   -0.434079172809    1.074459690585
 H   -0.655843302418   -0.238079172809    0.302459690585
 H   -3.240843302418   -0.513079172809    1.818459690585
 H    1.173156697582   -0.301079172809    1.418459690585
 H   -3.021481302418    0.748506827191    0.637949690585
 H   -3.183255302418   -0.985719172809    0.165199690585
 H    1.056637697582   -0.016561172809    3.188399690585
 H    1.136500697582   -1.698097172809    2.513879690585
