12
0 1 
 C    0.176541410344   -0.984274124486   -1.705818379510
 C   -0.068458589656    1.507725875514    1.159181620490
 C   -0.053458589656    0.171725875514    0.433181620490
 O   -0.150458589656   -0.890274124486    1.057181620490
 N    0.092541410344    0.225725875514   -0.891818379510
 H    0.137541410344    1.135725875514   -1.340818379510
 H   -0.740458589656   -1.563274124486   -1.584818379510
 H    0.040541410344    1.330725875514    2.230181620490
 H   -1.034458589656    1.982725875514    0.982181620490
 H    0.311708410344   -0.731194124486   -2.767741379510
 H    1.007731410344   -1.619214124486   -1.365258379510
 H    0.729077410344    2.180125875514    0.810161620490
