24
0 1 
 C   -0.551077575801    0.102163881523   -3.270102703113
 C   -3.049077575801   -1.044836118477   -0.634102703113
 C   -1.258077575801   -0.037836118477   -1.922102703113
 O   -0.738077575801    0.445163881523   -0.923102703113
 N   -2.397077575801   -0.741836118477   -1.901102703113
 H    0.499922424199    0.319163881523   -3.074102703113
 H   -2.807077575801   -1.069836118477   -2.771102703113
 H   -3.291077575801   -0.103836118477   -0.137102703113
 H   -0.614207575801   -0.824550118477   -3.859352703113
 H   -0.974627575801    0.944134881523   -3.837282703113
 H   -3.988727575801   -1.580045118477   -0.835612703113
 H   -2.350257575801   -1.591078118477    0.016497296887
 C    0.240922424199    1.345163881523    2.636897296887
 C    2.336922424199   -0.910836118477    0.389897296887
 C    1.968922424199    0.018163881523    1.559897296887
 O    2.776922424199    0.275163881523    2.453897296887
 N    0.741922424199    0.533163881523    1.548897296887
 H    0.136922424199    0.352163881523    0.753897296887
 H    0.971922424199    2.121163881523    2.852897296887
 H    3.208922424199   -1.495836118477    0.682897296887
 H   -0.714607575801    1.818612881523    2.367077296887
 H    0.141912424199    0.769867881523    3.569227296887
 H    1.524232424199   -1.600871118477    0.118997296887
 H    2.604672424199   -0.304809118477   -0.488192703113
