12
0 1 
 C   -0.558378978804    1.234711457837   -1.337094204437
 C    0.235621021196   -0.761288542163    1.796905795563
 C   -0.025378978804    0.127711457837   -0.442094204437
 O    0.554621021196   -0.839288542163   -0.934094204437
 N   -0.219378978804    0.262711457837    0.865905795563
 H   -0.750378978804    0.782711457837   -2.313094204437
 H   -0.615378978804    1.122711457837    1.229905795563
 H    1.274621021196   -1.012288542163    1.579905795563
 H   -1.495588978804    1.661061457837   -0.949984204437
 H    0.204011021196    2.019379457837   -1.451345204437
 H    0.151601021196   -0.397909542163    2.831746795563
 H   -0.377788978804   -1.663356542163    1.655461795563
