12
0 1 
 C   -0.211870217001   -0.431906818802   -1.927853498024
 C    0.396129782999    1.063093181198    1.534146501976
 C    0.032129782999    0.038093181198    0.468146501976
 O   -0.319870217001   -1.097906818802    0.789146501976
 N    0.108129782999    0.440093181198   -0.796853498024
 H    0.399129782999    1.394093181198   -1.000853498024
 H   -0.643870217001   -1.372906818802   -1.581853498024
 H    0.653129782999    2.002093181198    1.046146501976
 H   -0.923800217001    0.056373181198   -2.609573498024
 H    0.701559782999   -0.663516818802   -2.495303498024
 H   -0.465740217001    1.200333181198    2.203736501976
 H    1.277259782999    0.724303181198    2.098796501976
