12
0 1 
 C   -1.003823549303   -1.121398308268   -1.290058524140
 C    0.545176450697    1.580601691732    0.945941475860
 C    0.264176450697    0.214601691732    0.320941475860
 O    0.919176450697   -0.771398308268    0.662941475860
 N   -0.694823549303    0.141601691732   -0.605058524140
 H   -1.256823549303    0.963601691732   -0.812058524140
 H   -1.178823549303   -1.896398308268   -0.545058524140
 H    1.533176450697    1.531601691732    1.404941475860
 H   -1.897805549303   -1.031357308268   -1.924638524140
 H   -0.161593549303   -1.481841308268   -1.898938524140
 H    0.536932450697    2.389236691732    0.200261475860
 H   -0.193409549303    1.777462691732    1.736971475860
