24
0 1 
 C   -1.288829368306    2.788616556569   -0.445748480400
 C    1.909170631694    1.855616556569   -2.255748480400
 C   -0.217829368306    1.959616556569   -1.131748480400
 O   -0.322829368306    0.735616556569   -1.206748480400
 N    0.839170631694    2.603616556569   -1.606748480400
 H   -1.792829368306    2.123616556569    0.251251519600
 H    0.841170631694    3.616616556569   -1.641748480400
 H    1.486170631694    1.242616556569   -3.053748480400
 H   -0.845919368306    3.624895556569    0.115023519600
 H   -2.029199368306    3.158441556569   -1.170377480400
 H    2.608620631694    2.574458556569   -2.707448480400
 H    2.427710631694    1.185949556569   -1.553851480400
 C   -1.196829368306   -2.333383443431   -0.329748480400
 C    0.939170631694   -1.093383443431    2.583251519600
 C    0.014170631694   -1.942383443431    1.742251519600
 O   -0.416829368306   -2.994383443431    2.235251519600
 N   -0.263829368306   -1.547383443431    0.495251519600
 H    0.054170631694   -0.648383443431    0.155251519600
 H   -1.406829368306   -3.301383443431    0.126251519600
 H    1.591170631694   -1.800383443431    3.099251519600
 H   -2.155049368306   -1.807607243431   -0.453711480400
 H   -0.794339368306   -2.548669143431   -1.330574480400
 H    1.521810631694   -0.368302443431    1.996064519600
 H    0.344800631694   -0.580622443431    3.353836519600
