12
0 1 
 C    1.450209452376    0.097277431482   -1.355801618124
 C   -1.405790547624    0.602277431482    1.155198381876
 C   -0.340790547624   -0.083722568518    0.309198381876
 O   -0.112790547624   -1.276722568518    0.480198381876
 N    0.365209452376    0.666277431482   -0.547801618124
 H    0.079209452376    1.624277431482   -0.725801618124
 H    1.069209452376   -0.761722568518   -1.909801618124
 H   -1.508790547624    0.019277431482    2.066198381876
 H    1.827079452376    0.831607431482   -2.082937618124
 H    2.274659452376   -0.258632568518   -0.720499318124
 H   -1.121442547624    1.627587431482    1.434281381876
 H   -2.375358547624    0.590017431482    0.635787381876
