24
0 1 
 C   -2.824771667054    0.087498743827    0.015436859311
 C   -0.223771667054   -2.699501256173   -0.011563140689
 C   -1.551771667054   -1.987501256173    0.262436859311
 O   -2.487771667054   -2.566501256173    0.818436859311
 N   -1.629771667054   -0.731501256173   -0.160563140689
 H   -0.781771667054   -0.299501256173   -0.518563140689
 H   -3.597771667054   -0.450501256173    0.566436859311
 H    0.503228332946   -1.949501256173   -0.326563140689
 H   -2.563651667054    1.011118743827    0.552776859311
 H   -3.276861667054    0.346558743827   -0.953323140689
 H    0.159178332946   -3.216371256173    0.880736859311
 H   -0.341981667054   -3.420321256173   -0.834023140689
 C    1.456228332946    2.762498743827   -1.627563140689
 C    2.564228332946    0.859498743827    1.469436859311
 C    1.519228332946    1.683498743827   -0.571563140689
 O    0.767228332946    0.713498743827   -0.645563140689
 N    2.412228332946    1.838498743827    0.399436859311
 H    2.286228332946    3.444498743827   -1.472563140689
 H    2.972228332946    2.685498743827    0.420436859311
 H    1.709228332946    0.201498743827    1.459436859311
 H    1.524958332946    2.307808743827   -2.626833140689
 H    0.535398332946    3.354458743827   -1.519613140689
 H    3.485528332946    0.266828743827    1.369696859311
 H    2.635688332946    1.339278743827    2.456706859311
