12
0 1 
 C    0.025628110569   -0.397490015083    1.873777518047
 C    0.680628110569    0.278509984917   -1.815222481953
 C   -0.215371889431   -0.041490015083    0.407777518047
 O   -1.360371889431    0.089509984917   -0.018222481953
 N    0.855628110569    0.066509984917   -0.386222481953
 H   -0.924371889431   -0.744490015083    2.283777518047
 H    1.791628110569   -0.004490015083    0.001777518047
 H    0.104628110569    1.191509984917   -1.979222481953
 H    0.770538110569   -1.202920015083    1.953727518047
 H    0.354288110569    0.475847984917    2.456237518047
 H    1.648388110569    0.386996984917   -2.326762481953
 H    0.111718110569   -0.536467015083   -2.286562481953
