12
0 1 
 C   -1.095508281308    1.537053517136    0.289748908578
 C    0.595491718692   -1.872946482864    0.163748908578
 C   -0.086508281308    0.453053517136   -0.076251091422
 O    0.870491718692    0.700053517136   -0.814251091422
 N   -0.309508281308   -0.756946482864    0.430748908578
 H   -0.910508281308    2.391053517136   -0.360251091422
 H   -1.090508281308   -0.893946482864    1.065748908578
 H    1.613491718692   -1.589946482864    0.442748908578
 H   -2.112998281308    1.151549517136    0.128178908578
 H   -0.937738281308    1.838374517136    1.335848908578
 H    0.296311718692   -2.760466482864    0.740638908578
 H    0.610681718692   -2.124706482864   -0.906946091422
