24
0 1 
 C   -0.057334843679    3.234596547886   -0.404712704476
 C   -1.817334843679    1.662596547886    2.578287295524
 C   -0.546334843679    2.153596547886    0.554287295524
 O   -0.394334843679    0.963596547886    0.271287295524
 N   -1.124334843679    2.572596547886    1.678287295524
 H   -0.114334843679    4.202596547886    0.095287295524
 H   -1.242334843679    3.566596547886    1.837287295524
 H   -1.250334843679    0.742596547886    2.726287295524
 H    0.977014156321    3.011926547886   -0.705613704476
 H   -0.710796843679    3.248076547886   -1.289475704476
 H   -2.005143843679    2.155956547886    3.543338295524
 H   -2.807409843679    1.447076547886    2.150147295524
 C    0.584665156321   -1.317403452114   -2.771712704476
 C    0.992665156321   -2.072403452114    0.938287295524
 C    0.847665156321   -2.375403452114   -0.545712704476
 O    1.008665156321   -3.527403452114   -0.975712704476
 N    0.556665156321   -1.324403452114   -1.313712704476
 H    0.371665156321   -0.438403452114   -0.853712704476
 H    0.912665156321   -2.287403452114   -3.136712704476
 H    0.512665156321   -1.118403452114    1.121287295524
 H   -0.423668843679   -1.101233452114   -3.154506704476
 H    1.299524156321   -0.547503452114   -3.097635704476
 H    0.508344156321   -2.852443452114    1.544065295524
 H    2.062160156321   -1.989963452114    1.181978295524
