24
0 1 
 C   -0.590690809561    3.514461797867    0.703756700923
 C   -0.857690809561    1.559461797867   -2.571243299077
 C   -0.709690809561    2.358461797867   -0.287243299077
 O   -0.806690809561    1.208461797867    0.132756700923
 N   -0.758690809561    2.645461797867   -1.599243299077
 H   -0.214690809561    3.088461797867    1.635756700923
 H   -0.760690809561    3.613461797867   -1.903243299077
 H   -1.715690809561    0.932461797867   -2.324243299077
 H    0.094579190439    4.308761797867    0.372859700923
 H   -1.582790809561    3.938431797867    0.918225700923
 H   -1.019650809561    1.979291797867   -3.574992299077
 H    0.028029190439    0.907961797867   -2.538812299077
 C   -1.015690809561   -2.861538202133    0.127756700923
 C    2.166309190439   -1.033538202133    1.145756700923
 C    1.184309190439   -2.169538202133    0.876756700923
 O    1.465309190439   -3.334538202133    1.161756700923
 N   -0.000690809561   -1.836538202133    0.362756700923
 H   -0.212690809561   -0.863538202133    0.165756700923
 H   -1.210690809561   -3.390538202133    1.063756700923
 H    3.153309190439   -1.471538202133    1.308756700923
 H   -1.945580809561   -2.371198202133   -0.196081299077
 H   -0.680460809561   -3.603788202133   -0.611623299077
 H    2.212319190439   -0.326028202133    0.304738700923
 H    1.847279190439   -0.525108202133    2.067557700923
