12
0 1 
 C    0.025096637686   -1.565502415523    1.188782966100
 C    0.237096637686    1.819497584477   -0.515217033900
 C   -0.020903362314    0.326497584477   -0.336217033900
 O   -0.445903362314   -0.375502415523   -1.258217033900
 N    0.203096637686   -0.155502415523    0.883782966100
 H    0.531096637686    0.472497584477    1.609782966100
 H    0.557096637686   -2.149502415523    0.437782966100
 H   -0.204903362314    2.126497584477   -1.464217033900
 H    0.457516637686   -1.780272415523    2.177160966100
 H   -1.034993362314   -1.856522415523    1.149787966100
 H   -0.240193362314    2.365937584477    0.311582966100
 H    1.316296637686    2.029637584477   -0.549409033900
