12
0 1 
 C    0.535769427994   -0.166129423396   -1.806849432870
 C   -0.168230572006    0.822870576604    1.773150567130
 C    0.000769427994   -0.243129423396   -0.395849432870
 O   -0.653230572006   -1.219129423396   -0.021849432870
 N    0.288769427994    0.778870576604    0.395150567130
 H    1.266769427994    0.639870576604   -1.871849432870
 H    0.838769427994    1.553870576604    0.033150567130
 H   -0.599230572006   -0.132129423396    2.074150567130
 H    1.003769427994   -1.132419423396   -2.046149432870
 H   -0.283530572006    0.041210576604   -2.510949432870
 H    0.685009427994    1.031140576604    2.435420567130
 H   -0.941960572006    1.600220576604    1.857190567130
