12
0 1 
 C    1.544698654709   -0.190630565883    1.184041045185
 C   -1.828301345291    0.086369434117   -0.516958954815
 C   -0.321301345291    0.052369434117   -0.327958954815
 O    0.440698654709    0.158369434117   -1.286958954815
 N    0.118698654709   -0.100630565883    0.916041045185
 H   -0.540301345291   -0.168630565883    1.687041045185
 H    2.048698654709    0.713369434117    0.837041045185
 H   -2.062301345291   -0.052630565883   -1.564958954815
 H    1.717688654709   -0.319298565883    2.262707045185
 H    1.951978654709   -1.043260565883    0.620888045185
 H   -2.326811345291   -0.701870565883    0.066277045185
 H   -2.229911345291    1.074945434117   -0.249698954815
