12
0 1 
 C   -1.859144311117    0.148797878398    0.410516862071
 C    1.850855688883    0.623797878398   -0.383483137929
 C   -0.413144311117   -0.209202121602    0.084516862071
 O   -0.059144311117   -1.388202121602    0.017516862071
 N    0.422855688883    0.808797878398   -0.109483137929
 H   -2.346144311117   -0.743202121602    0.807516862071
 H    0.047855688883    1.752797878398   -0.098483137929
 H    1.959855688883   -0.032202121602   -1.250483137929
 H   -1.905636311117    0.956416878398    1.155896862071
 H   -2.355385311117    0.441083878398   -0.526663137929
 H    2.320503688883    1.588632878398   -0.625403137929
 H    2.360238688883    0.122295278398    0.452596862071
