24
0 1 
 C    2.461257143825   -1.453167915370   -2.337279740009
 C    0.948257143825    2.073832084630   -2.358279740009
 C    1.691257143825   -0.226167915370   -1.879279740009
 O    1.191257143825   -0.225167915370   -0.757279740009
 N    1.582257143825    0.801832084630   -2.730279740009
 H    2.580257143825   -2.121167915370   -1.485279740009
 H    3.443257143825   -1.142167915370   -2.687279740009
 H    2.000257143825    0.727832084630   -3.653279740009
 H    1.516257143825    2.507832084630   -1.537279740009
 H    1.985057143825   -2.026427915370   -3.146359740009
 H    0.948257143825    2.774142084630   -3.206549740009
 H   -0.082942856175    1.974182084630   -1.988549740009
 C   -0.031742856175    0.819832084630    2.622720259991
 C   -2.696742856175   -1.177167915370    0.817720259991
 C   -1.952742856175   -0.445167915370    1.931720259991
 O   -2.453742856175   -0.337167915370    3.062720259991
 N   -0.771742856175    0.082832084630    1.610720259991
 H   -0.340742856175   -0.070167915370    0.702720259991
 H   -0.070742856175    0.268832084630    3.559720259991
 H   -3.764742856175   -1.063167915370    0.992720259991
 H    1.019547143825    0.943512084630    2.323580259991
 H   -0.484972856175    1.792072084630    2.866320259991
 H   -2.511032856175   -0.825297915370   -0.207809740009
 H   -2.458142856175   -2.249087915370    0.753950259991
