12
0 1 
 C    1.613185580291   -0.753745846342    0.673298018835
 C   -1.777814419709    0.837254153658    0.047298018835
 C    0.417185580291   -0.190745846342   -0.074701981165
 O    0.375185580291   -0.231745846342   -1.305701981165
 N   -0.561814419709    0.318254153658    0.660298018835
 H    1.354185580291   -0.869745846342    1.727298018835
 H   -0.461814419709    0.368254153658    1.667298018835
 H   -2.351814419709   -0.013745846342   -0.324701981165
 H    1.807855580291   -1.730095846342    0.205498018835
 H    2.479585580291   -0.084585846342    0.565718018835
 H   -2.393694419709    1.339324153658    0.807968018835
 H   -1.589874419709    1.523494153658   -0.791601981165
