12
0 1 
 C   -0.421128483305   -0.511601742812   -1.860490373363
 C    0.514871516695   -0.224601742812    1.841509626637
 C    0.067871516695    0.178398257188    0.429509626637
 O   -0.166128483305    1.357398257188    0.149509626637
 N    0.003871516695   -0.791601742812   -0.489490373363
 H    0.289871516695   -1.734601742812   -0.250490373363
 H   -0.101128483305    0.496398257188   -2.131490373363
 H    0.183871516695    0.442398257188    2.636509626637
 H    0.016301516695   -1.229501742812   -2.569890373363
 H   -1.512648483305   -0.502201742812   -1.996480373363
 H    0.173311516695   -1.243201742812    2.077509626637
 H    1.608891516695   -0.131701742812    1.774559626637
