12
0 1 
 C   -1.569513242052   -1.140236164718   -0.361670041589
 C    1.056486757948    1.574763835282    0.006329958411
 C    0.399486757948    0.213763835282    0.106329958411
 O    0.979486757948   -0.711236164718    0.680329958411
 N   -0.810513242052    0.098763835282   -0.423670041589
 H   -1.233513242052    0.899763835282   -0.883670041589
 H   -0.916513242052   -1.983236164718   -0.132670041589
 H    0.293486757948    2.328763835282   -0.170670041589
 H   -2.349583242052   -1.060505164718    0.409779958411
 H   -2.060263242052   -1.346410164718   -1.324299041589
 H    1.549156757948    1.757430835282    0.972719958411
 H    1.785516757948    1.600671835282   -0.816980041589
