24
0 1 
 C    1.929283234700   -1.641446980260    2.891747313473
 C   -1.461716765300   -0.050446980260    2.265747313473
 C    0.733283234700   -1.078446980260    2.143747313473
 O    0.691283234700   -1.119446980260    0.912747313473
 N   -0.245716765300   -0.569446980260    2.878747313473
 H    1.670283234700   -1.757446980260    3.945747313473
 H   -0.145716765300   -0.519446980260    3.885747313473
 H   -2.035716765300   -0.901446980260    1.893747313473
 H    2.123953234700   -2.617796980260    2.423947313473
 H    2.795683234700   -0.972286980260    2.784167313473
 H   -2.077596765300    0.451623019740    3.026417313473
 H   -1.273776765300    0.635793019740    1.426847313473
 C    1.335283234700   -0.089446980260   -2.658252686527
 C   -1.797716765300    1.506553019740   -1.183252686527
 C   -0.699716765300    1.137553019740   -2.164252686527
 O   -0.708716765300    1.619553019740   -3.298252686527
 N    0.239283234700    0.283553019740   -1.765252686527
 H    0.197283234700   -0.114446980260   -0.831252686527
 H    1.627283234700    0.801553019740   -3.226252686527
 H   -2.746716765300    1.457553019740   -1.719252686527
 H   -1.645716765300    2.544553019740   -0.884252686527
 H    2.216383234700   -0.409316980260   -2.082622686527
 H    1.080633234700   -0.868576980260   -3.391812686527
 H   -1.880976765300    0.873043019740   -0.287862686527
