12
0 1 
 C   -0.819806724168   -1.664268877778    0.408652722612
 C    0.221193275832    1.766731122222   -0.833347277388
 C    0.006193275832   -0.409268877778    0.223652722612
 O    1.135193275832   -0.324268877778    0.712652722612
 N   -0.547806724168    0.577731122222   -0.477347277388
 H   -1.458806724168   -1.829268877778   -0.458347277388
 H   -1.455806724168   -1.528268877778    1.284652722612
 H   -1.483806724168    0.472731122222   -0.857347277388
 H   -0.372806724168    2.395731122222   -1.497347277388
 H   -0.157136724168   -2.530718877778    0.550545722612
 H    0.455793275832    2.348931122222    0.069986722612
 H    1.121493275832    1.443141122222   -1.376258277388
