12
0 1 
 C   -1.373238306290   -0.676703087713    1.149448522868
 C    1.211761693710    0.067296912287   -1.557551477132
 C   -0.264238306290    0.041296912287    0.384448522868
 O    0.247761693710    1.063296912287    0.829448522868
 N    0.136761693710   -0.495703087713   -0.765551477132
 H   -1.788238306290    0.035296912287    1.865448522868
 H   -0.311238306290   -1.353703087713   -1.078551477132
 H    2.086761693710    0.215296912287   -0.923551477132
 H   -2.177138306290   -0.992573087713    0.468298522868
 H   -0.976358306290   -1.531083087713    1.717348522868
 H    1.473631693710   -0.652853087713   -2.346731477132
 H    0.929121693710    1.056176912287   -1.947721477132
