24
0 1 
 C   -2.055020681608   -0.778220226033   -2.516782066121
 C    1.212979318392   -2.076220226033   -1.126782066121
 C   -1.036020681608   -1.279220226033   -1.510782066121
 O   -1.327020681608   -1.405220226033   -0.313782066121
 N    0.160979318392   -1.588220226033   -2.003782066121
 H   -2.885020681608   -0.340220226033   -1.957782066121
 H    0.319979318392   -1.564220226033   -3.004782066121
 H    0.822979318392   -2.907220226033   -0.536782066121
 H   -1.618800681608   -0.019150226033   -3.182754066121
 H   -2.429110681608   -1.631430226033   -3.101659066121
 H    2.068199318392   -2.443460226033   -1.713072066121
 H    1.532159318392   -1.285830226033   -0.431502066121
 C   -1.299020681608    1.371779773967    2.094217933879
 C    2.086979318392    1.356779773967    0.284217933879
 C    1.057979318392    1.443779773967    1.411217933879
 O    1.432979318392    1.637779773967    2.565217933879
 N   -0.230020681608    1.342779773967    1.080217933879
 H   -0.478020681608    1.257779773967    0.095217933879
 H   -1.227020681608    2.302779773967    2.666217933879
 H    3.059979318392    1.168779773967    0.743217933879
 H   -2.291200681608    1.329299773967    1.621168933879
 H   -1.192390681608    0.551869773967    2.819740933879
 H    1.840039318392    0.532379773967   -0.400899066121
 H    2.138369318392    2.307449773967   -0.266770066121
