12
0 1 
 C   -1.956563617281    0.070971411050    0.400592964998
 C    1.765436382719   -0.746028588950   -0.083407035002
 C    0.452436382719    0.044971411050   -0.111407035002
 O    0.427436382719    1.183971411050   -0.585407035002
 N   -0.635563617281   -0.562028588950    0.362592964998
 H   -0.520563617281   -1.441028588950    0.852592964998
 H   -1.823563617281    1.125971411050    0.634592964998
 H    2.524436382719   -0.104028588950   -0.532407035002
 H   -2.461923617281   -0.018968588950   -0.572300035002
 H   -2.570813617281   -0.363968588950    1.202790964998
 H    2.077556382719   -1.031828588950    0.931925964998
 H    1.710526382719   -1.645288588950   -0.714529035002
