24
0 1 
 C    2.173760379506   -0.310927774344    2.786191994690
 C    1.814760379506    2.555072225656    0.317191994690
 C    1.677760379506    0.516072225656    1.587191994690
 O    0.745760379506    0.094072225656    0.887191994690
 N    2.319760379506    1.667072225656    1.356191994690
 H    2.698760379506    0.313072225656    3.504191994690
 H    3.044760379506    1.991072225656    1.994191994690
 H    0.854760379506    2.961072225656    0.637191994690
 H    1.278410379506   -0.736087774344    3.263251994690
 H    2.821650379506   -1.135907774344    2.455051994690
 H    2.515900379506    3.390602225656    0.174771994690
 H    1.644320379506    2.021552225656   -0.629538005310
 C   -2.749239620494    0.706072225656   -0.867808005310
 C   -0.271239620494   -2.165927774344   -1.510808005310
 C   -1.563239620494   -1.341927774344   -1.507808005310
 O   -2.529239620494   -1.628927774344   -2.238808005310
 N   -1.573239620494   -0.204927774344   -0.784808005310
 H   -0.775239620494    0.046072225656   -0.207808005310
 H   -3.645239620494    0.186072225656   -0.520808005310
 H   -0.319239620494   -2.823927774344   -2.381808005310
 H   -2.570851620494    1.589382225656   -0.236978005310
 H   -2.910037620494    1.032692225656   -1.905818005310
 H    0.603310379506   -1.504587774344   -1.599088005310
 H   -0.198459620494   -2.792427774344   -0.609588005310
