24
0 1 
 C   -0.587531698048   -3.050022991889    0.579943442551
 C    2.038468301952   -0.335022991889    0.947943442551
 C    1.381468301952   -1.696022991889    1.047943442551
 O    1.961468301952   -2.621022991889    1.621943442551
 N    0.171468301952   -1.811022991889    0.517943442551
 H   -0.251531698048   -1.010022991889    0.057943442551
 H    0.065468301952   -3.893022991889    0.808943442551
 H    1.275468301952    0.418977008111    0.770943442551
 H   -1.367601698048   -2.970291991889    1.351393442551
 H   -1.078281698048   -3.256196991889   -0.382685557449
 H    2.531138301952   -0.152355991889    1.914333442551
 H    2.767498301952   -0.309114991889    0.124633442551
 C   -2.319531698048    1.383977008111   -2.194056557449
 C    0.227468301952    3.069977008111    0.035943442551
 C   -1.250531698048    1.600977008111   -1.140056557449
 O   -0.830531698048    0.640977008111   -0.482056557449
 N   -0.790531698048    2.826977008111   -0.969056557449
 H   -2.363531698048    2.226977008111   -2.885056557449
 H   -1.125531698048    3.590977008111   -1.548056557449
 H    0.226468301952    2.283977008111    0.787943442551
 H    1.210468301952    3.091977008111   -0.434056557449
 H   -1.953281698048    0.466468008111   -2.677834557449
 H   -3.285141698048    1.213703008111   -1.695447357449
 H    0.075838301952    4.011087008111    0.584865442551
