24
0 1 
 C    2.727756193803   -1.886014961948    0.630868800071
 C    0.851756193803    0.906985038052    2.463868800071
 C    1.545756193803   -1.072014961948    1.226868800071
 O    0.363756193803   -1.456014961948    1.160868800071
 N    1.873756193803    0.068985038052    1.849868800071
 H    2.359756193803   -2.709014961948    0.010868800071
 H    2.848756193803    0.313985038052    1.991868800071
 H    0.280756193803    0.284985038052    3.151868800071
 H    3.382790193803   -1.223514961948    0.046038800071
 H    3.316041193803   -2.309384961948    1.458318800071
 H    1.309506193803    1.738385038052    3.020008800071
 H    0.101213193803    1.261685038052    1.742168800071
 C   -1.581243806197   -1.209014961948   -2.086131199929
 C   -0.691243806197    2.296985038052   -0.749131199929
 C   -1.490243806197    1.127985038052   -1.358131199929
 O   -2.686243806197    1.294985038052   -1.661131199929
 N   -0.876243806197   -0.060014961948   -1.507131199929
 H    0.097756193803   -0.172014961948   -1.246131199929
 H   -2.014243806197   -0.912014961948   -3.042131199929
 H   -1.442243806197    2.947985038052   -0.299131199929
 H   -0.912291806197   -2.065814961948   -2.254621199929
 H   -2.405870806197   -1.510264961948   -1.423381199929
 H    0.015263193803    1.957185038052    0.022488800071
 H   -0.160907806197    2.865285038052   -1.527431199929
