12
0 1 
 C    0.070779166974   -1.372497625982    1.423040386465
 C   -0.475220833026    1.648502374018   -0.845959613535
 C    0.015779166974    0.282502374018   -0.368959613535
 O    0.809779166974   -0.363497625982   -1.051959613535
 N   -0.437220833026   -0.154497625982    0.804040386465
 H   -1.169220833026    0.352502374018    1.281040386465
 H    1.158779166974   -1.328497625982    1.365040386465
 H   -0.671220833026    1.565502374018   -1.915959613535
 H   -0.167220833026   -1.384757625982    2.496915386465
 H   -0.241590833026   -2.281407625982    0.887962386465
 H   -1.401150833026    1.968152374018   -0.345477613535
 H    0.342479166974    2.374072374018   -0.723840613535
