24
0 1 
 C    0.569673061059    1.778589989580   -2.718403380057
 C   -2.385326938941   -0.166410010420   -1.320403380057
 C   -0.487326938941    1.303589989580   -1.729403380057
 O   -0.505326938941    1.716589989580   -0.574403380057
 N   -1.362326938941    0.406589989580   -2.182403380057
 H    1.370673061059    2.257589989580   -2.152403380057
 H   -1.336326938941    0.140589989580   -3.161403380057
 H   -3.001326938941    0.647589989580   -0.935403380057
 H    0.989653061059    0.919812989580   -3.262571380057
 H    0.146953061059    2.519972989580   -3.412417380057
 H   -3.025046938941   -0.854848010420   -1.892072180057
 H   -1.925356938941   -0.676048010420   -0.460928880057
 C    1.808673061059    0.681589989580    2.042596619943
 C   -0.029326938941   -2.381410010420    0.704596619943
 C    0.619673061059   -1.404410010420    1.681596619943
 O    0.603673061059   -1.634410010420    2.891596619943
 N    1.183673061059   -0.314410010420    1.172596619943
 H    1.191673061059   -0.169410010420    0.168596619943
 H    2.519673061059    0.165589989580    2.689596619943
 H   -0.764326938941   -2.942410010420    1.276596619943
 H    2.378473061059    1.421473989580    1.461309619943
 H    1.073553061059    1.181272989580    2.690600619943
 H   -0.556166938941   -1.866592010420   -0.112348380057
 H    0.715843061059   -3.085660010420    0.306166619943
