24
0 1 
 C    2.510566858009   -0.727474485853    2.344155688839
 C    2.373566858009   -1.422474485853   -1.391844311161
 C    2.065566858009   -0.622474485853    0.899155688839
 O    1.171566858009    0.157525514147    0.579155688839
 N    2.687566858009   -1.410474485853    0.032155688839
 H    3.454566858009   -1.268474485853    2.383155688839
 H    3.407566858009   -2.039474485853    0.375155688839
 H    1.671566858009   -0.624474485853   -1.628844311161
 H    2.641826858009    0.283400514147    2.757555688839
 H    1.761606858009   -1.280395485853    2.930105688839
 H    3.278316858009   -1.277628485853   -2.000483311161
 H    1.911726858009   -2.377332485853   -1.683304311161
 C   -2.307433141991   -0.691474485853    0.789155688839
 C   -1.323433141991    2.065525514147   -1.649844311161
 C   -2.185433141991    1.173525514147   -0.767844311161
 O   -3.413433141991    1.312525514147   -0.759844311161
 N   -1.569433141991    0.242525514147   -0.051844311161
 H   -0.556433141991    0.209525514147   -0.052844311161
 H   -3.373433141991   -0.595474485853    0.607155688839
 H   -0.260433141991    1.894525514147   -1.467844311161
 H   -2.005939141991   -1.720015485853    0.541757688839
 H   -2.173123141991   -0.497952485853    1.863635688839
 H   -1.631283141991    1.745517514147   -2.656236311161
 H   -1.577443141991    3.122582514147   -1.482183311161
