12
0 1 
 C   -0.112920860005   -1.887961571744   -0.609915509121
 C    0.777079139995    1.618038428256    0.727084490879
 C   -0.021920860005    0.449038428256    0.118084490879
 O   -1.217920860005    0.616038428256   -0.184915509121
 N    0.592079139995   -0.738961571744   -0.030915509121
 H    1.566079139995   -0.850961571744    0.230084490879
 H   -0.545920860005   -1.590961571744   -1.565915509121
 H    0.026079139995    2.269038428256    1.177084490879
 H    0.556031139995   -2.744761571744   -0.778405509121
 H   -0.937547860005   -2.189211571744    0.052834490879
 H    1.483586139995    1.278238428256    1.498704490879
 H    1.307415139995    2.186338428256   -0.051215509121
