24
0 1 
 C   -1.483551159687   -3.331835167429   -0.862513663266
 C   -0.556551159687   -1.326835167429    2.223486336734
 C   -0.999551159687   -2.156835167429   -0.024513663266
 O   -0.745551159687   -1.065835167429   -0.542513663266
 N   -0.858551159687   -2.392835167429    1.272486336734
 H   -2.026551159687   -4.008835167429   -0.196513663266
 H   -1.068551159687   -3.308835167429    1.642486336734
 H   -0.317551159687   -0.408835167429    1.691486336734
 H   -2.168327159687   -3.000735167429   -1.657154663266
 H   -0.623401159687   -3.879594167429   -1.274952663266
 H   -1.421248159687   -1.120886167429    2.871470936734
 H    0.305668840313   -1.551041167429    2.868708236734
 C    2.518448840313    1.075164832571   -1.080513663266
 C   -0.903551159687    2.317164832571    0.031486336734
 C    0.597448840313    2.336164832571   -0.267513663266
 O    1.262448840313    3.368164832571   -0.127513663266
 N    1.123448840313    1.180164832571   -0.667513663266
 H    0.524448840313    0.360164832571   -0.725513663266
 H    3.152448840313    1.514164832571   -0.309513663266
 H   -1.270551159687    1.293164832571    0.084486336734
 H    2.795228840313    0.019823832571   -1.220698663266
 H    2.712688840313    1.639103832571   -2.004766663266
 H   -1.165661159687    2.839880832571    0.963186336734
 H   -1.462162159687    2.864936832571   -0.741753663266
