12
0 1 
 C    0.524242876493   -1.486053831348   -1.191195843924
 C    0.234242876493    1.576946168652    1.028804156076
 C   -0.197757123507    0.319946168652    0.288804156076
 O   -1.370757123507   -0.049053831348    0.270804156076
 N    0.776242876493   -0.317053831348   -0.357195843924
 H    1.723242876493    0.040946168652   -0.275195843924
 H    1.458242876493   -2.034053831348   -1.314195843924
 H   -0.190757123507   -2.143053831348   -0.693195843924
 H    1.322242876493    1.620946168652    0.970804156076
 H    0.132922876493   -1.253573831348   -2.192604843924
 H   -0.149117123507    2.496096168652    0.561683156076
 H   -0.003757123507    1.564686168652    2.102679156076
