24
0 1 
 C   -0.353319619992    2.935292941345   -0.892448179572
 C    1.411680380008    0.957292941345    1.845551820428
 C    1.003680380008    2.144292941345    0.971551820428
 O    1.462680380008    3.300292941345    1.180551820428
 N    0.167680380008    1.871292941345   -0.038448179572
 H   -0.158319619992    0.918292941345   -0.183448179572
 H   -0.073319619992    3.913292941345   -0.500448179572
 H    0.853680380008    0.065292941345    1.562551820428
 H    0.064590380008    2.840182941345   -1.905516179572
 H   -1.452089619992    2.892287941345   -0.921834179572
 H    2.493490380008    0.818310941345    1.702811820428
 H    1.203830380008    1.199197941345    2.898301820428
 C   -1.722319619992   -1.823707058655   -2.169448179572
 C    0.127680380008   -3.393707058655    0.751551820428
 C   -0.886319619992   -1.923707058655   -0.903448179572
 O   -0.524319619992   -0.907707058655   -0.298448179572
 N   -0.671319619992   -3.150707058655   -0.445448179572
 H   -2.016319619992   -2.818707058655   -2.504448179572
 H   -1.046319619992   -3.947707058655   -0.951448179572
 H    0.644680380008   -2.491707058655    1.068551820428
 H   -2.608639619992   -1.223808058655   -1.915355179572
 H   -1.148559619992   -1.324287058655   -2.964045179572
 H   -0.527879619992   -3.720767058655    1.572081820428
 H    0.864430380008   -4.167297058655    0.489353820428
