12
0 1 
 C   -1.229665649757    1.526734727174    0.302913996773
 C    0.734334350243   -1.744265272826    0.210913996773
 C    0.328334350243   -0.318265272826   -0.103086003227
 O    0.962334350243    0.336734727174   -0.934086003227
 N   -0.754665649757    0.151734727174    0.522913996773
 H   -1.270665649757   -0.460265272826    1.151913996773
 H   -1.478665649757    1.663734727174   -0.751086003227
 H    1.766334350243   -1.872265272826   -0.124086003227
 H   -2.124542649757    1.713553727174    0.914713996773
 H   -0.435524649757    2.250316727174    0.539063996773
 H    0.667347350243   -1.945227272826    1.290323996773
 H    0.076765350243   -2.422698272826   -0.352406003227
