12
0 1 
 C   -1.337550154045   -0.525809819060   -1.252443073309
 C    1.209449845955    1.160190180940    0.977556926691
 C   -0.268550154045   -0.308809819060   -0.198443073309
 O    0.151449845955   -1.268809819060    0.459556926691
 N    0.191449845955    0.917190180940   -0.027443073309
 H   -1.381550154045    0.317190180940   -1.943443073309
 H   -0.143550154045    1.681190180940   -0.606443073309
 H    1.208449845955    0.374190180940    1.729556926691
 H    2.192449845955    1.182190180940    0.507556926691
 H   -0.971300154045   -1.443318819060   -1.736221073309
 H   -2.303160154045   -0.696083819060   -0.753833873309
 H    1.057819845955    2.101300180940    1.526478926691
