12
0 1 
 C   -0.108784815642    1.976515903666    0.156095824421
 C    0.810215184358   -1.652484096334   -0.433904175579
 C   -0.049784815642   -0.464484096334   -0.008904175579
 O   -1.221784815642   -0.635484096334    0.337095824421
 N    0.564215184358    0.707515903666   -0.035904175579
 H    1.536215184358    0.729515903666   -0.323904175579
 H   -1.095784815642    1.840515903666    0.593095824421
 H    1.854215184358   -1.341484096334   -0.433904175579
 H    0.480505184358    2.645925903666    0.800012824421
 H   -0.207684815642    2.482565903666   -0.815571175579
 H    0.688265184358   -2.533034096334    0.213979824421
 H    0.536445184358   -1.896544096334   -1.470962175579
