12
0 1 
 C   -0.377340934160    1.544756760452    1.166635464850
 C    0.908659065840   -1.015243239548   -1.328364535150
 C    0.035659065840   -0.401243239548   -0.244364535150
 O   -1.003340934160   -0.948243239548    0.117635464850
 N    0.450659065840    0.751756760452    0.266635464850
 H    1.295659065840    1.173756760452   -0.102364535150
 H    0.166659065840    2.453756760452    1.424635464850
 H   -1.297340934160    1.828756760452    0.652635464850
 H    1.844659065840   -0.455243239548   -1.364364535150
 H   -0.641180934160    1.031568760452    2.103131464850
 H    1.124759065840   -2.078432239548   -1.146899535150
 H    0.418019065840   -0.877319239548   -2.303173535150
