24
0 1 
 C    2.232388079774    0.114072749376    2.680013607907
 C    2.887388079774    0.790072749376   -1.008986392093
 C    1.991388079774    0.470072749376    1.214013607907
 O    0.846388079774    0.601072749376    0.788013607907
 N    3.062388079774    0.578072749376    0.420013607907
 H    1.282388079774   -0.232927250624    3.090013607907
 H    3.998388079774    0.507072749376    0.808013607907
 H    2.311388079774    1.703072749376   -1.172986392093
 H    2.977298079774   -0.691357250624    2.759963607907
 H    2.561048079774    0.987410749376    3.262473607907
 H    3.855148079774    0.898559749376   -1.520526392093
 H    2.318478079774   -0.024904250624   -1.480326392093
 C   -2.107611920226    1.284072749376   -1.581986392093
 C   -1.613611920226   -2.102927250624    0.070013607907
 C   -2.283611920226   -0.932927250624   -0.647986392093
 O   -3.451611920226   -1.031927250624   -1.032986392093
 N   -1.571611920226    0.177072749376   -0.818986392093
 H   -0.640611920226    0.244072749376   -0.421986392093
 H   -3.014611920226    1.605072749376   -1.071986392093
 H   -2.150611920226   -2.999927250624   -0.226986392093
 H   -1.365681920226    2.096188749376   -1.580556392093
 H   -2.393051920226    0.936082749376   -2.585696392093
 H   -0.556711920226   -2.195743250624   -0.220406392093
 H   -1.722291920226   -1.991372250624    1.158933607907
