12
0 1 
 C    0.430056949255   -1.225960792841    1.404223182593
 C    0.071056949255    1.640039207159   -1.064776817407
 C   -0.065943050745   -0.398960792841    0.205223182593
 O   -0.997943050745   -0.820960792841   -0.494776817407
 N    0.576056949255    0.752039207159   -0.025776817407
 H    0.955056949255   -0.601960792841    2.122223182593
 H    1.301056949255    1.076039207159    0.612223182593
 H   -0.888943050745    2.046039207159   -0.744776817407
 H   -0.465293050745   -1.651120792841    1.881283182593
 H    1.077946949255   -2.050940792841    1.073083182593
 H    0.772196949255    2.475569207159   -1.207196817407
 H   -0.099383050745    1.106519207159   -2.011506817407
