24
0 1 
 C    0.891837277337   -3.285307184366   -0.607004583561
 C   -0.842162722663   -0.821307184366   -2.947004583561
 C    0.449837277337   -1.976307184366   -1.248004583561
 O    0.743837277337   -0.904307184366   -0.709004583561
 N   -0.305162722663   -2.043307184366   -2.343004583561
 H    1.083837277337   -3.063307184366    0.444995416439
 H   -0.490162722663   -2.945307184366   -2.777004583561
 H   -0.017162722663   -0.149307184366   -3.195004583561
 H    0.105683277337   -4.052617184366   -0.663534583561
 H    1.832657277337   -3.649337184366   -1.045574583561
 H   -1.399823722663   -1.051267184366   -3.866854583561
 H   -1.485500722663   -0.301747184366   -2.221634583561
 C    0.496837277337    2.934692815634    0.092995416439
 C   -0.980162722663    0.246692815634    2.356995416439
 C   -0.334162722663    1.587692815634    1.970995416439
 O   -0.231162722663    2.505692815634    2.789995416439
 N    0.137837277337    1.681692815634    0.732995416439
 H    0.084837277337    0.856692815634    0.145995416439
 H    0.400837277337    2.799692815634   -0.985004583561
 H   -0.230162722663    3.692692815634    0.386995416439
 H   -1.612162722663    0.406692815634    3.230995416439
 H    1.497347277337    3.350302815634    0.283365416439
 H   -1.599076722663   -0.154497184366    1.540915416439
 H   -0.196696722663   -0.485737184366    2.601375416439
