24
0 1 
 C   -0.231034594285    0.796014138219   -2.886831191311
 C    2.922965405715   -0.496985861781   -1.227831191311
 C    0.837965405715    0.557014138219   -1.824831191311
 O    0.713965405715    1.036014138219   -0.671831191311
 N    1.885965405715   -0.169985861781   -2.191831191311
 H   -0.403034594285   -0.140985861781   -3.420831191311
 H    1.983965405715   -0.493985861781   -3.144831191311
 H    2.461965405715   -0.679985861781   -0.260831191311
 H   -1.161604594285    1.128304138219   -2.403491191311
 H    0.097095405715    1.562124138219   -3.604749191311
 H    3.474575405715   -1.413025861781   -1.485911191311
 H    3.597255405715    0.362514138219   -1.099051191311
 C    0.345965405715   -1.386985861781    1.954168808689
 C   -2.624034594285    1.003014138219    2.223168808689
 C   -0.939034594285   -0.673985861781    1.591168808689
 O   -1.551034594285   -0.950985861781    0.584168808689
 N   -1.363034594285    0.273014138219    2.409168808689
 H    1.036965405715   -1.154985861781    1.150168808689
 H   -0.829034594285    0.461014138219    3.247168808689
 H   -3.330034594285    0.379014138219    1.679168808689
 H   -3.055034594285    1.204014138219    3.205168808689
 H    0.776925405715   -1.079805861781    2.918488808689
 H    0.172795405715   -2.473075861781    1.933878808689
 H   -2.528054594285    1.962064138219    1.693068808689
