24
0 1 
 C   -2.536076366356    1.596765444848   -1.126021840794
 C    0.800923633644    0.174765444848   -2.256021840794
 C   -0.519076366356    0.917765444848   -2.272021840794
 O   -0.876076366356    1.526765444848   -3.299021840794
 N   -1.243076366356    0.904765444848   -1.153021840794
 H   -0.915076366356    0.413765444848   -0.325021840794
 H   -2.752076366356    2.049765444848   -2.093021840794
 H    0.874923633644   -0.395234555152   -1.330021840794
 H   -3.369156366356    0.920115444848   -0.884924840794
 H   -2.545466366356    2.420438444848   -0.396998840794
 H    0.827303633644   -0.505008555152   -3.120431840794
 H    1.644663633644    0.876812444848   -2.328301840794
 C    0.316923633644    0.122765444848    3.411978159206
 C    1.925923633644   -2.424234555152    1.121978159206
 C    0.602923633644   -0.701234555152    2.179978159206
 O   -0.061076366356   -0.538234555152    1.152978159206
 N    1.614923633644   -1.562234555152    2.246978159206
 H    1.201923633644    0.106765444848    4.051978159206
 H    2.147923633644   -1.656234555152    3.102978159206
 H    1.868923633644   -1.846234555152    0.197978159206
 H    0.079803633644    1.149550444848    3.096565159206
 H   -0.524906366356   -0.322994555152    3.962080159206
 H    2.952733633644   -2.808755755152    1.210275159206
 H    1.171813633644   -3.224659655152    1.096648159206
