12
0 1 
 C   -1.843428900744    0.034295228201   -0.517734460993
 C    1.702571099256    0.661295228201    0.764265539007
 C   -0.369428900744   -0.208704771799   -0.197734460993
 O    0.154571099256   -1.299704771799   -0.426734460993
 N    0.300571099256    0.799295228201    0.355265539007
 H   -2.325428900744   -0.943704771799   -0.549734460993
 H   -0.174428900744    1.684295228201    0.497265539007
 H    2.296571099256    0.391295228201   -0.110734460993
 H   -2.308311900744    0.628270228201    0.282935539007
 H   -1.949782900744    0.491615228201   -1.512494460993
 H    2.085221099256    1.618981228201    1.146915539007
 H    1.822661099256   -0.146446771799    1.501235539007
