24
0 1 
 C    2.704222566961   -2.215418239524    0.318719262902
 C   -0.996777433039   -3.004418239524    0.601719262902
 C    1.197222566961   -2.078418239524    0.228719262902
 O    0.698222566961   -1.038418239524   -0.198280737098
 N    0.456222566961   -3.088418239524    0.671719262902
 H    3.056222566961   -1.189418239524    0.227719262902
 H    0.894222566961   -3.937418239524    1.015719262902
 H   -1.305777433039   -2.756418239524   -0.411280737098
 H    3.010872566961   -2.597028239524    1.303779262902
 H    3.099002566961   -2.834548239524   -0.500320737098
 H   -1.466297433039   -3.948488239524    0.915209262902
 H   -1.379217433039   -2.161458239524    1.195989262902
 C   -1.977777433039    1.681581760476   -1.800280737098
 C    0.238222566961    2.168581760476    1.279719262902
 C   -0.521777433039    2.482581760476   -0.007280737098
 O   -0.455777433039    3.603581760476   -0.508280737098
 N   -1.247777433039    1.507581760476   -0.544280737098
 H   -1.295777433039    0.612581760476   -0.075280737098
 H   -1.325777433039    2.215581760476   -2.494280737098
 H    0.050222566961    2.993581760476    1.966719262902
 H   -2.196797433039    0.695981760476   -2.236880737098
 H   -2.895107433039    2.279251760476   -1.693960737098
 H   -0.077297433039    1.221281760476    1.741319262902
 H    1.321782566961    2.156361760476    1.090619262902
