12
0 1 
 C    0.879275378468   -1.753460943706   -0.282508857562
 C   -0.668724621532    1.744539056294   -0.428508857562
 C   -0.212724621532    0.395539056294    0.125491142438
 O   -0.415724621532    0.112539056294    1.303491142438
 N    0.398275378468   -0.439460943706   -0.715508857562
 H    0.497275378468   -0.173460943706   -1.691508857562
 H    0.079275378468   -2.261460943706    0.260491142438
 H   -0.808724621532    2.398539056294    0.433491142438
 H    1.153425378468   -2.373530943706   -1.148739577562
 H    1.725915378468   -1.681590943706    0.416081142438
 H    0.076535378468    2.191239056294   -1.103077807562
 H   -1.633744621532    1.616829056294   -0.940792257562
