12
0 1 
 C    0.036595586468    1.896077521198   -0.043404549824
 C    0.669595586468   -1.829922478802    0.348595450176
 C   -0.212404413532    0.404077521198   -0.112404549824
 O   -1.319404413532   -0.030922478802   -0.442404549824
 N    0.813595586468   -0.382922478802    0.216595450176
 H    1.057595586468    2.112077521198   -0.356404549824
 H    1.666595586468    0.038077521198    0.565595450176
 H   -0.379404413532   -2.049922478802    0.497595450176
 H   -0.687904413532    2.419077521198   -0.684936549824
 H   -0.113094413532    2.225827521198    0.995275450176
 H    0.993185586468   -2.381512478802   -0.546411549824
 H    1.219115586468   -2.151382478802    1.245640450176
