12
0 1 
 C    1.382384266203   -1.417052764743   -0.162443609215
 C   -1.126615733797    1.418947235257   -0.579443609215
 C   -0.331615733797    0.317947235257    0.109556390785
 O   -0.485615733797    0.069947235257    1.305556390785
 N    0.516384266203   -0.352052764743   -0.664443609215
 H    0.554384266203   -0.111052764743   -1.651443609215
 H    0.942384266203   -1.894052764743    0.714556390785
 H   -0.479615733797    2.295947235257   -0.633443609215
 H    1.518214266203   -2.173392764743   -0.949525609215
 H    2.336124266203   -0.965392764743    0.148025390785
 H   -1.421435733797    1.141517235257   -1.602239609215
 H   -2.014705733797    1.679557235257    0.015010390785
