12
0 1 
 C   -1.649674873173    0.567544640780    0.890642835151
 C    1.687325126827   -0.854455359220   -0.239357164849
 C    0.367325126827   -0.111455359220   -0.255357164849
 O    0.010325126827    0.497544640780   -1.282357164849
 N   -0.356674873173   -0.124455359220    0.863642835151
 H   -0.028674873173   -0.615455359220    1.691642835151
 H   -1.865674873173    1.020544640780   -0.076357164849
 H    1.761325126827   -1.424455359220    0.686642835151
 H   -2.482754873173   -0.109105359220    1.131739835151
 H   -1.659064873173    1.391217640780    1.619665835151
 H    1.713705126827   -1.534229359220   -1.103767164849
 H    2.531065126827   -0.152408359220   -0.311637164849
