12
0 1 
 C   -0.954674253535   -1.507788493799    0.710854338172
 C    1.548325746465    1.191211506201   -0.358145661828
 C   -0.400674253535   -0.226788493799    0.064854338172
 O   -1.107674253535    0.410211506201   -0.738145661828
 N    0.868325746465    0.106211506201    0.346854338172
 H   -1.532674253535   -2.017788493799   -0.063145661828
 H    1.394325746465   -0.421788493799    1.030854338172
 H    1.007325746465    2.124211506201   -0.208145661828
 H   -0.180434253535   -2.209517493799    1.054544338172
 H   -1.638519253535   -1.274959493799    1.540404338172
 H    2.580035746465    1.305927506201    0.005734338172
 H    1.586965746465    0.977580506201   -1.436505661828
