12
0 1 
 C   -0.912522556824    1.459720426426   -0.997273466359
 C    0.946477443176   -0.877279573574    1.429726533641
 C    0.206477443176   -0.377279573574    0.193726533641
 O    0.030477443176   -1.137279573574   -0.758273466359
 N   -0.233522556824    0.891720426426    0.167726533641
 H   -0.143522556824    1.466720426426    0.997726533641
 H   -1.731522556824    0.795720426426   -1.283273466359
 H    1.528477443176   -1.750279573574    1.124726533641
 H   -1.343160156824    2.437187426426   -0.734383466359
 H   -0.235171556824    1.541206426426   -1.860153466359
 H    1.616927443176   -0.096223573574    1.817606533641
 H    0.206130443176   -1.177575573574    2.185836533641
