24
0 1 
 C    1.843352290845    2.535480787822    1.853947558630
 C    2.665352290845   -0.915519212178    0.450947558630
 C    1.683352290845    1.256480787822    1.048947558630
 O    0.681352290845    1.091480787822    0.371947558630
 N    2.678352290845    0.384480787822    1.116947558630
 H    2.840352290845    2.563480787822    2.297947558630
 H    3.457352290845    0.583480787822    1.728947558630
 H    1.677352290845   -1.113519212178    0.045947558630
 H    1.667842290845    3.428090787822    1.235524558630
 H    1.108542290845    2.527610787822    2.672474558630
 H    3.412652290845   -0.973329212178   -0.354162441370
 H    2.915062290845   -1.683449212178    1.197891558630
 C   -2.530647709155   -0.358519212178    0.841947558630
 C   -0.713647709155   -1.003519212178   -2.446052441370
 C   -1.830647709155   -1.009519212178   -1.404052441370
 O   -2.928647709155   -1.512519212178   -1.656052441370
 N   -1.554647709155   -0.429519212178   -0.239052441370
 H   -0.631647709155   -0.033519212178   -0.094052441370
 H   -3.265647709155   -1.157519212178    0.746947558630
 H    0.176352290845   -0.546519212178   -2.009052441370
 H   -2.022837709155   -0.472239212178    1.811071558630
 H   -3.073817709155    0.598010787822    0.838317558630
 H   -0.477027709155   -2.033821212178   -2.750172441370
 H   -1.032747709155   -0.390369212178   -3.301752441370
