12
0 1 
 C    0.556746058127   -0.689000837011   -1.762595050479
 C   -1.182253941873    0.627999162989    1.353404949521
 C   -0.070253941873    0.158999162989    0.430404949521
 O    1.084746058127    0.071999162989    0.847404949521
 N   -0.412253941873   -0.145000837011   -0.819595050479
 H   -1.378253941873   -0.046000837011   -1.106595050479
 H    1.067746058127   -1.538000837011   -1.303595050479
 H   -0.774253941873    1.436999162989    1.957404949521
 H    0.044549058127   -1.042210837011   -2.669735050479
 H    1.328317058127    0.047959162989   -2.030121050479
 H   -2.038629941873    1.025979162989    0.789283949521
 H   -1.452863941873   -0.179550837011    2.049564949521
