24
0 1 
 C    1.605506950607    2.494461850699   -1.965603852211
 C    2.804506950607    0.264461850699    0.879396147789
 C    1.566506950607    1.461461850699   -0.848603852211
 O    0.507506950607    0.936461850699   -0.519603852211
 N    2.726506950607    1.158461850699   -0.267603852211
 H    0.736506950607    3.132461850699   -1.924603852211
 H    1.562506950607    1.951461850699   -2.907603852211
 H    3.586506950607    1.575461850699   -0.606603852211
 H    2.289506950607   -0.669538149301    0.648396147789
 H    2.520766950607    3.104631850699   -1.964848852211
 H    3.858026950607    0.037528850699    1.099865947789
 H    2.311566950607    0.721422850699    1.750140147789
 C   -2.225493049393    0.288461850699    1.703396147789
 C   -0.939493049393   -2.271538149301   -0.791603852211
 C   -1.812493049393   -1.657538149301    0.292396147789
 O   -2.851493049393   -2.204538149301    0.654396147789
 N   -1.397493049393   -0.504538149301    0.803396147789
 H   -0.552493049393   -0.082538149301    0.434396147789
 H   -1.681493049393    1.197461850699    1.961396147789
 H   -3.145493049393    0.572461850699    1.189396147789
 H   -0.003493049393   -1.711538149301   -0.827603852211
 H   -2.489333049393   -0.224726149301    2.639892147789
 H   -0.723393049393   -3.334727149301   -0.610138852211
 H   -1.430133049393   -2.133614149301   -1.766412852211
