12
0 1 
 C    1.251118875312    1.584258681621    0.078220502307
 C   -0.552881124688   -1.809741318379    0.241220502307
 C   -0.342881124688   -0.325741318379   -0.039779497693
 O   -1.255881124688    0.335258681621   -0.570779497693
 N    0.858118875312    0.176258681621    0.291220502307
 H    1.543118875312   -0.442741318379    0.723220502307
 H    0.526118875312    1.988258681621   -0.631779497693
 H    0.346118875312   -2.182741318379    0.732220502307
 H    1.201748875312    2.196328681621    0.990870502307
 H    2.274108875312    1.562858681621   -0.325549497693
 H   -1.425472124688   -1.964571318379    0.892840502307
 H   -0.688172124688   -2.363861318379   -0.699339497693
