12
0 1 
 C    1.087772315607    0.722599838941    1.391617297704
 C   -0.589227684393   -0.361400161059   -1.862382702296
 C    0.081772315607    0.051599838941    0.460617297704
 O   -0.867227684393   -0.587400161059    0.917617297704
 N    0.306772315607    0.184599838941   -0.846382702296
 H    1.085772315607    0.179599838941    2.337617297704
 H    1.113772315607    0.714599838941   -1.158382702296
 H   -1.614227684393   -0.092400161059   -1.624382702296
 H    2.103912315607    0.692429838941    0.971433297704
 H    0.786852315607    1.761029838941    1.594395297704
 H   -0.338017684393    0.044289838941   -2.853499702296
 H   -0.546667684393   -1.457110161059   -1.949663702296
