12
0 1 
 C    1.942665431388   -0.271103471988    0.308415200229
 C   -1.782334568612   -0.448103471988   -0.515584799771
 C   -0.457334568612    0.122896528012   -0.032584799771
 O   -0.371334568612    1.286896528012    0.312415200229
 N    0.604665431388   -0.679103471988   -0.081584799771
 H    0.460665431388   -1.652103471988   -0.331584799771
 H    1.897665431388    0.199896528012    1.294415200229
 H   -2.389334568612    0.396896528012   -0.850584799771
 H    2.575435431388   -1.169313471988    0.361505200229
 H    2.400885431388    0.444366528012   -0.390244799771
 H   -1.616654568612   -1.138073471988   -1.356114799771
 H   -2.300374568612   -0.969783471988    0.302635200229
