24
0 1 
 C   -2.910123354606    1.195312586327   -1.158284525307
 C    0.799876645394    1.670312586327   -1.952284525307
 C   -1.464123354606    0.837312586327   -1.484284525307
 O   -1.110123354606   -0.341687413673   -1.551284525307
 N   -0.628123354606    1.855312586327   -1.678284525307
 H   -3.397123354606    0.303312586327   -0.761284525307
 H   -1.003123354606    2.799312586327   -1.667284525307
 H    0.908876645394    1.014312586327   -2.819284525307
 H   -2.956615354606    2.002931586327   -0.412904525307
 H   -3.406364354606    1.487598586327   -2.095464525307
 H    1.269524645394    2.635147586327   -2.194204525307
 H    1.309259645394    1.168809986327   -1.116204525307
 C   -0.332123354606   -2.432687413673    1.335715474693
 C    1.780876645394    0.715312586327    1.640715474693
 C    1.424876645394   -0.770687413673    1.629715474693
 O    2.256876645394   -1.631687413673    1.927715474693
 N    0.169876645394   -1.064687413673    1.299715474693
 H   -0.481123354606   -0.304687413673    1.129715474693
 H   -0.034123354606   -2.886687413673    2.283715474693
 H    2.869876645394    0.792312586327    1.644715474693
 H   -1.430872354606   -2.442005413673    1.284115474693
 H    0.105826645394   -3.067606413673    0.551445474693
 H    1.373345645394    1.220053386327    0.752375474693
 H    1.383461645394    1.145547986327    2.571825474693
