12
0 1 
 C   -1.228202065175   -1.333739404077   -0.631780006059
 C    0.659797934825    1.598260595923    0.944219993941
 C   -0.109202065175   -0.371739404077   -0.251780006059
 O    1.034797934825   -0.570739404077   -0.677780006059
 N   -0.389202065175    0.635260595923    0.585219993941
 H   -1.187202065175   -2.103739404077    0.135219993941
 H   -1.323202065175    0.742260595923    0.964219993941
 H    0.984797934825    2.081260595923    0.020219993941
 H   -2.240562065175   -0.904069404077   -0.609166006059
 H   -1.016512065175   -1.815049404077   -1.597970006059
 H    0.285681934825    2.387980595923    1.612334993941
 H    1.549854934825    1.119500595923    1.378481993941
