12
0 1 
 C    1.980376559750    0.125737110205   -0.101093057437
 C   -1.725623440250   -0.834262889795    0.009906942563
 C   -0.465623440250    0.032737110205    0.038906942563
 O   -0.554623440250    1.262737110205    0.113906942563
 N    0.706376559750   -0.598262889795   -0.058093057437
 H    0.711376559750   -1.614262889795   -0.097093057437
 H    2.036376559750    0.773737110205    0.773906942563
 H   -2.565623440250   -0.170262889795   -0.197093057437
 H    2.842804559750   -0.556102889795   -0.064833057437
 H    2.031393559750    0.782497110205   -0.982039057437
 H   -1.654254440250   -1.581762889795   -0.793932057437
 H   -1.903643440250   -1.315422889795    0.982941942563
