12
0 1 
 C   -1.857812141105    0.027354269152   -0.372557197520
 C    1.654187858895    0.394354269152    1.007442802480
 C   -0.350812141105   -0.118645730848   -0.296557197520
 O    0.245187858895   -0.911645730848   -1.026557197520
 N    0.260187858895    0.600354269152    0.643442802480
 H   -2.143812141105    0.937354269152    0.148442802480
 H   -0.278812141105    1.291354269152    1.157442802480
 H    2.037187858895   -0.497645730848    0.518442802480
 H   -2.194345141105    0.085194269152   -1.418217197520
 H   -2.326265141105   -0.817885730848    0.152922802480
 H    2.278291858895    1.232724269152    0.664472802480
 H    1.722883858895    0.287334269152    2.100062802480
