12
0 1 
 C   -1.178795925026   -0.604609551872   -1.474479534169
 C    1.037204074974   -0.117609551872    1.605520465831
 C    0.277204074974    0.196390448128    0.318520465831
 O    0.343204074974    1.317390448128   -0.182479534169
 N   -0.448795925026   -0.778609551872   -0.218479534169
 H   -0.496795925026   -1.673609551872    0.250520465831
 H   -0.526795925026   -0.070609551872   -2.168479534169
 H    0.849204074974    0.707390448128    2.292520465831
 H   -1.397815925026   -1.590209551872   -1.911079534169
 H   -2.096125925026   -0.006939551872   -1.368159534169
 H    0.721684074974   -1.064909551872    2.067120465831
 H    2.120764074974   -0.129829551872    1.416420465831
