12
0 1 
 C   -1.582061411625    0.230939226039   -1.061216997911
 C    1.941938588375   -0.020060773961    0.427783002089
 C   -0.469061411625   -0.012060773961   -0.036216997911
 O   -0.737061411625   -0.412060773961    1.096783002089
 N    0.783938588375    0.214939226039   -0.441216997911
 H   -1.701061411625    1.311939226039   -1.143216997911
 H    0.936938588375    0.533939226039   -1.389216997911
 H    1.924938588375   -1.069060773961    0.720783002089
 H   -1.309631411625   -0.166420773961   -2.050098997911
 H   -2.529501411625   -0.205680773961   -0.712346997911
 H    2.879338588375    0.225229226039   -0.092912997911
 H    1.904398588375    0.556029226039    1.364111002089
