24
0 1 
 C    0.510333175027   -3.347241313712   -0.630191708513
 C   -1.171666824973   -1.199241313712    2.060808291487
 C   -0.387666824973   -2.268241313712    0.003808291487
 O   -1.058666824973   -1.507241313712   -0.691191708513
 N   -0.380666824973   -2.182241313712    1.332808291487
 H    0.677333175027   -3.074241313712   -1.675191708513
 H    0.158333175027   -2.857241313712    1.866808291487
 H   -2.217666824973   -1.295241313712    1.765808291487
 H    1.473063175027   -3.370341313712   -0.098571708513
 H    0.019353175027   -4.331341313712   -0.608201708513
 H   -1.086716824973   -1.404841313712    3.138078291487
 H   -0.863716824973   -0.166541313712    1.840228291487
 C    0.081333175027    1.583758686288   -2.286191708513
 C    1.017333175027    1.870758686288    1.415808291487
 C    0.570333175027    2.273758686288    0.003808291487
 O    0.336333175027    3.452758686288   -0.276191708513
 N    0.506333175027    1.303758686288   -0.915191708513
 H    0.792333175027    0.360758686288   -0.676191708513
 H    0.401333175027    2.591758686288   -2.557191708513
 H    0.686333175027    2.537758686288    2.210808291487
 H    0.518763175027    0.865858686288   -2.995591708513
 H   -1.010186824973    1.593158686288   -2.422181708513
 H    0.675773175027    0.852158686288    1.651808291487
 H    2.111353175027    1.963658686288    1.348858291487
