12
0 1 
 C   -1.897422001473   -0.059946367092    0.602590544629
 C    1.488577998527   -0.074946367092   -1.207409455371
 C    0.459577998527    0.012053632908   -0.080409455371
 O    0.834577998527    0.206053632908    1.073590544629
 N   -0.828422001473   -0.088946367092   -0.411409455371
 H   -1.076422001473   -0.173946367092   -1.396409455371
 H   -1.825422001473    0.871053632908    1.174590544629
 H    2.461577998527   -0.262946367092   -0.748409455371
 H   -2.889602001473   -0.102426367092    0.129541544629
 H   -1.790792001473   -0.879856367092    1.328113544629
 H    1.241637998527   -0.899346367092   -1.892526455371
 H    1.539967998527    0.875723632908   -1.758397455371
