16
0 1 
 H    2.750486850001   -0.242117949352    0.000000000000
 N    1.799721550001   -0.574924049352    0.000000000000
 C    1.427850150001   -1.895553349352    0.000000000000
 C    0.054086850001   -1.987680849352    0.000000000000
 C   -0.449269349999   -0.653314349352    0.000000000000
 C    0.679897050001    0.213357350648    0.000000000000
 C    0.554361950001    1.605535450648    0.000000000000
 C   -0.728687749999    2.130413650648    0.000000000000
 C   -1.861488749999    1.291247650648    0.000000000000
 C   -1.735854349999   -0.087952249352    0.000000000000
 H    2.174964750001   -2.671548649352    0.000000000000
 H   -0.514613549999   -2.901836549352    0.000000000000
 H    1.425089050001    2.247720650648    0.000000000000
 H   -0.863794649999    3.203554550648    0.000000000000
 H   -2.846636749999    1.737705850648    0.000000000000
 H   -2.614056349999   -0.720522949352    0.000000000000
