12
0 1 
 C    0.151085864766   -0.680574676095   -1.207542600000
 C   -0.151121935234    0.680353423905   -1.207904000000
 C   -0.301866635234    1.361170123905    0.000000000000
 C   -0.151121935234    0.680353423905    1.207904000000
 C    0.151085864766   -0.680574676095    1.207542600000
 C    0.302625164766   -1.360648576095    0.000000000000
 H    0.267142964766   -1.208292276095   -2.144148200000
 H   -0.272136335234    1.207521923905   -2.144054600000
 H   -0.537666535234    2.416453523905    0.000000000000
 H   -0.272136335234    1.207521923905    2.144054600000
 H    0.267142964766   -1.208292276095    2.144148200000
 H    0.539480564766   -2.415853976095    0.000000000000
