12
0 1 
 N    0.451514275004   -1.482524078350   -0.098237311666
 C    0.465863175004   -0.966496478350   -1.364572911666
 H    0.737676375004   -1.660375978350   -2.145815911666
 C    0.154678175004    0.322648321650   -1.612659211666
 H    0.167442875004    0.721529821650   -2.612175011666
 C   -0.250883924996    1.188217221650   -0.520759011666
 O   -0.639251824996    2.341769621650   -0.626215711666
 N   -0.182955924996    0.570428621650    0.734465588334
 H   -0.508040424996    1.116906121650    1.523200988334
 C    0.086146475004   -0.754528078350    1.018556688334
 O    0.001264575004   -1.241122878350    2.129635888334
 H    0.569619075004   -2.470821378350    0.056643388334
