12
0 1 
 C   -0.812232065455    1.132972145331    0.000000000000
 C   -0.405553865455    0.566744445331   -1.206204800000
 C   -0.405553865455    0.566744445331    1.206204800000
 C    0.406739734545   -0.565862454669   -1.206953900000
 C    0.811420834545   -1.133722554669    0.000000000000
 C    0.406739734545   -0.565862454669    1.206953900000
 H   -1.454031965455    2.003203445331    0.000000000000
 H   -0.726203865455    1.003357845331    2.142315000000
 H    0.722437034545   -1.005008054669    2.143797700000
 H    1.442984934545   -2.011971454669    0.000000000000
 H    0.722437034545   -1.005008054669   -2.143797700000
 H   -0.726203865455    1.003357845331   -2.142315000000
