12
0 1 
 C   -0.686759712468   -0.119212526383   -1.207107900000
 C   -1.373622912468   -0.238545526383    0.000000000000
 C   -0.686759712468   -0.119212526383    1.207107900000
 C    0.686748187532    0.119548773617    1.207073500000
 C    1.373564687532    0.238665573617    0.000000000000
 C    0.686748187532    0.119548773617   -1.207073500000
 H   -1.219428212468   -0.214459426383   -2.143289400000
 H   -2.437699212468   -0.429852926383    0.000000000000
 H   -1.219428212468   -0.214459426383    2.143289400000
 H    1.219321787532    0.212397473617    2.143695000000
 H    2.438879787532    0.424540173617    0.000000000000
 H    1.219321787532    0.212397473617   -2.143695000000
