12
0 1 
 O   -1.404170962212   -2.024715604922    0.000000000000
 C   -0.565985762212   -1.122617104922    0.000000000000
 N    0.782669937788   -1.348616104922    0.000000000000
 C    1.698889637788   -0.331608504922    0.000000000000
 C    1.339064237788    0.969291395078    0.000000000000
 C   -0.066439862212    1.325269995078    0.000000000000
 N   -0.915562362212    0.202758395078    0.000000000000
 O   -0.535062262212    2.449521695078    0.000000000000
 H    2.072511037788    1.756979295078    0.000000000000
 H    1.085412137788   -2.330702904922    0.000000000000
 H   -1.907866162212    0.395500095078    0.000000000000
 H    2.731222637788   -0.648543204922    0.000000000000
