16
0 1 
 H   -3.025142639717    1.118472801391    0.844940820495
 C   -2.105445339717    0.648943401391    0.522390320495
 C   -0.898319739717    1.297134701391    0.727733620495
 H   -0.868530839717    2.267470601391    1.206644020495
 C    0.287050660283    0.672374601391    0.305781220495
 C    1.667483960283    1.026982901391    0.340435820495
 H    2.103632860283    1.922917501391    0.748625720495
 C    2.361757960283   -0.007984798609   -0.243633279505
 N    1.481268260283   -0.990691798609   -0.623426179505
 C    0.202743460283   -0.603859198609   -0.317089379505
 C   -1.011844639717   -1.262222698609   -0.518270879505
 H   -1.056297939717   -2.232395298609   -0.995563279505
 C   -2.162662739717   -0.618677398609   -0.091320279505
 H   -3.122375339717   -1.097295198609   -0.232124579505
 H    1.724196160283   -1.813606898609   -1.145660779505
 H    3.419501460283   -0.125444998609   -0.409441279505
