6
0 1 
 C   -0.667402735423   -0.000000000000   -0.000087079522
 C    0.667402735423    0.000000000000   -0.000087079522
 H   -1.233791024513   -0.000000000000   -0.923073079522
 H    1.233791024513    0.000000000000   -0.923073079522
 H   -1.231021994358   -0.000000000000    0.924109920478
 H    1.231021994358    0.000000000000    0.924109920478
