28
0 1 
 N   -0.214386000000   -1.993021000000    0.000158000000
 C   -1.483458000000   -1.537649000000    0.000039000000
 N   -1.896987000000   -0.269765000000   -0.000126000000
 C   -0.859092000000    0.583332000000   -0.000130000000
 C    0.502351000000    0.258224000000    0.000025000000
 C    0.818987000000   -1.120415000000    0.000169000000
 N    1.293025000000    1.395362000000   -0.000018000000
 C    0.430884000000    2.385528000000   -0.000191000000
 N   -0.884630000000    1.960299000000   -0.000268000000
 H   -2.247335000000   -2.317004000000    0.000055000000
 N    2.078153000000   -1.590279000000    0.000313000000
 H    2.839337000000   -0.928535000000    0.000354000000
 H    2.257625000000   -2.599226000000    0.000507000000
 H    0.686428000000    3.440469000000   -0.000272000000
 H   -1.715093000000    2.535836000000   -0.000408000000
 N   -1.531386000000    0.257923000000    3.400058000000
 C   -0.441657000000    1.151046000000    3.400004000000
 N    0.807600000000    0.619140000000    3.399965000000
 C    0.991823000000   -0.710199000000    3.399971000000
 C   -0.121928000000   -1.632069000000    3.400023000000
 C   -1.369720000000   -1.095137000000    3.400063000000
 H   -2.449951000000    0.681532000000    3.400092000000
 O   -0.679153000000    2.366258000000    3.399991000000
 N    2.250547000000   -1.160649000000    3.399929000000
 H    3.053531000000   -0.495724000000    3.399871000000
 H    2.426864000000   -2.153174000000    3.399928000000
 H    0.028766000000   -2.708274000000    3.400032000000
 H   -2.276836000000   -1.698111000000    3.400106000000
