13
0 1 
 N    0.979427000000    1.197258000000    3.737708000000
 C    1.205813000000   -0.193037000000    3.769470000000
 N    0.131107000000   -1.008972000000    3.618391000000
 C   -1.100146000000   -0.503844000000    3.445355000000
 C   -1.339290000000    0.921627000000    3.411798000000
 C   -0.261000000000    1.733781000000    3.563382000000
 H    1.797522000000    1.780954000000    3.852718000000
 O    2.365569000000   -0.594965000000    3.932450000000
 N   -2.109682000000   -1.368706000000    3.303432000000
 H   -1.937021000000   -2.396574000000    3.327639000000
 H   -3.048170000000   -1.025139000000    3.171535000000
 H   -2.336856000000    1.329225000000    3.271609000000
 H   -0.328971000000    2.820853000000    3.553873000000
