28
0 1 
 N   -0.214386000000   -1.993021000000    0.000158000000
 C   -1.483458000000   -1.537649000000    0.000039000000
 N   -1.896987000000   -0.269765000000   -0.000126000000
 C   -0.859092000000    0.583332000000   -0.000130000000
 C    0.502351000000    0.258224000000    0.000025000000
 C    0.818987000000   -1.120415000000    0.000169000000
 N    1.293025000000    1.395362000000   -0.000018000000
 C    0.430884000000    2.385528000000   -0.000191000000
 N   -0.884630000000    1.960299000000   -0.000268000000
 H   -2.247335000000   -2.317004000000    0.000055000000
 N    2.078153000000   -1.590279000000    0.000313000000
 H    2.839337000000   -0.928535000000    0.000354000000
 H    2.257625000000   -2.599226000000    0.000507000000
 H    0.686428000000    3.440469000000   -0.000272000000
 H   -1.715093000000    2.535836000000   -0.000408000000
 N    0.979427000000    1.197258000000    3.737708000000
 C    1.205813000000   -0.193037000000    3.769470000000
 N    0.131107000000   -1.008972000000    3.618391000000
 C   -1.100146000000   -0.503844000000    3.445355000000
 C   -1.339290000000    0.921627000000    3.411798000000
 C   -0.261000000000    1.733781000000    3.563382000000
 H    1.797522000000    1.780954000000    3.852718000000
 O    2.365569000000   -0.594965000000    3.932450000000
 N   -2.109682000000   -1.368706000000    3.303432000000
 H   -1.937021000000   -2.396574000000    3.327639000000
 H   -3.048170000000   -1.025139000000    3.171535000000
 H   -2.336856000000    1.329225000000    3.271609000000
 H   -0.328971000000    2.820853000000    3.553873000000
