13
0 1 
 N    0.989061000000    1.194337000000    3.683574000000
 C    1.217664000000   -0.192567000000    3.586538000000
 N    0.132391000000   -1.006512000000    3.529583000000
 C   -1.110962000000   -0.502615000000    3.564825000000
 C   -1.352449000000    0.919380000000    3.664312000000
 C   -0.263556000000    1.729553000000    3.721005000000
 H    1.815200000000    1.776609000000    3.724325000000
 O    2.388816000000   -0.593515000000    3.558488000000
 N   -2.130425000000   -1.365367000000    3.504453000000
 H   -1.956075000000   -2.390727000000    3.432695000000
 H   -3.078136000000   -1.022637000000    3.528418000000
 H   -2.359817000000    1.325985000000    3.692754000000
 H   -0.332189000000    2.813974000000    3.796879000000
