13
0 1 
 N    0.967436000000    1.197258000000    3.805694000000
 C    1.191054000000   -0.193037000000    3.853170000000
 N    0.129505000000   -1.008972000000    3.627491000000
 C   -1.086679000000   -0.503844000000    3.368990000000
 C   -1.322900000000    0.921627000000    3.318833000000
 C   -0.257810000000    1.733781000000    3.545265000000
 H    1.775514000000    1.780954000000    3.977491000000
 O    2.336617000000   -0.594965000000    4.096654000000
 N   -2.083855000000   -1.368706000000    3.156990000000
 H   -1.913303000000   -2.396574000000    3.193183000000
 H   -3.010856000000   -1.025139000000    2.959949000000
 H   -2.308256000000    1.329225000000    3.109398000000
 H   -0.324952000000    2.820853000000    3.531038000000
