13
0 1 
 N    0.989061000000    1.150894000000    3.270047000000
 C    1.217664000000   -0.185558000000    3.653212000000
 N    0.132391000000   -0.969896000000    3.878077000000
 C   -1.110962000000   -0.484334000000    3.738850000000
 C   -1.352449000000    0.885931000000    3.345987000000
 C   -0.263556000000    1.666635000000    3.122166000000
 H    1.815200000000    1.711988000000    3.109191000000
 O    2.388816000000   -0.571920000000    3.763986000000
 N   -2.130425000000   -1.315704000000    3.977198000000
 H   -1.956075000000   -2.303770000000    4.260461000000
 H   -3.078136000000   -0.985447000000    3.882497000000
 H   -2.359817000000    1.277742000000    3.233647000000
 H   -0.332189000000    2.711607000000    2.822569000000
