13
0 1 
 N   -1.197258000000    0.989061000000    3.400058000000
 C    0.193037000000    1.217664000000    3.400004000000
 N    1.008972000000    0.132391000000    3.399965000000
 C    0.503844000000   -1.110962000000    3.399971000000
 C   -0.921627000000   -1.352449000000    3.400023000000
 C   -1.733781000000   -0.263556000000    3.400063000000
 H   -1.780954000000    1.815200000000    3.400092000000
 O    0.594965000000    2.388816000000    3.399991000000
 N    1.368706000000   -2.130425000000    3.399929000000
 H    2.396574000000   -1.956075000000    3.399871000000
 H    1.025139000000   -3.078136000000    3.399928000000
 H   -1.329225000000   -2.359817000000    3.400032000000
 H   -2.820853000000   -0.332189000000    3.400106000000
