13
0 1 
 N    0.189061000000    1.197258000000    3.400058000000
 C    0.417664000000   -0.193037000000    3.400004000000
 N   -0.667609000000   -1.008972000000    3.399965000000
 C   -1.910962000000   -0.503844000000    3.399971000000
 C   -2.152449000000    0.921627000000    3.400023000000
 C   -1.063556000000    1.733781000000    3.400063000000
 H    1.015200000000    1.780954000000    3.400092000000
 O    1.588816000000   -0.594965000000    3.399991000000
 N   -2.930425000000   -1.368706000000    3.399929000000
 H   -2.756075000000   -2.396574000000    3.399871000000
 H   -3.878136000000   -1.025139000000    3.399928000000
 H   -3.159817000000    1.329225000000    3.400032000000
 H   -1.132189000000    2.820853000000    3.400106000000
