13
0 1 
 N    0.989061000000    3.197258000000    3.400058000000
 C    1.217664000000    1.806963000000    3.400004000000
 N    0.132391000000    0.991028000000    3.399965000000
 C   -1.110962000000    1.496156000000    3.399971000000
 C   -1.352449000000    2.921627000000    3.400023000000
 C   -0.263556000000    3.733781000000    3.400063000000
 H    1.815200000000    3.780954000000    3.400092000000
 O    2.388816000000    1.405035000000    3.399991000000
 N   -2.130425000000    0.631294000000    3.399929000000
 H   -1.956075000000   -0.396574000000    3.399871000000
 H   -3.078136000000    0.974861000000    3.399928000000
 H   -2.359817000000    3.329225000000    3.400032000000
 H   -0.332189000000    4.820853000000    3.400106000000
