13
0 1 
 N    0.929433000000    1.197258000000    3.261776000000
 C    1.144231000000   -0.193037000000    3.183538000000
 N    0.124395000000   -1.008972000000    3.554687000000
 C   -1.043973000000   -0.503844000000    3.979944000000
 C   -1.270878000000    0.921627000000    4.062586000000
 C   -0.247640000000    1.733781000000    3.690201000000
 H    1.705762000000    1.780954000000    2.979251000000
 O    2.244750000000   -0.594965000000    2.782968000000
 N   -2.001969000000   -1.368706000000    4.328582000000
 H   -1.838153000000   -2.396574000000    4.268896000000
 H   -2.892526000000   -1.025139000000    4.652717000000
 H   -2.217492000000    1.329225000000    4.407135000000
 H   -0.312119000000    2.820853000000    3.713715000000
