13
0 1 
 N    0.989061000000   -0.802742000000    3.400058000000
 C    1.217664000000   -2.193037000000    3.400004000000
 N    0.132391000000   -3.008972000000    3.399965000000
 C   -1.110962000000   -2.503844000000    3.399971000000
 C   -1.352449000000   -1.078373000000    3.400023000000
 C   -0.263556000000   -0.266219000000    3.400063000000
 H    1.815200000000   -0.219046000000    3.400092000000
 O    2.388816000000   -2.594965000000    3.399991000000
 N   -2.130425000000   -3.368706000000    3.399929000000
 H   -1.956075000000   -4.396574000000    3.399871000000
 H   -3.078136000000   -3.025139000000    3.399928000000
 H   -2.359817000000   -0.670775000000    3.400032000000
 H   -0.332189000000    0.820853000000    3.400106000000
