13
0 1 
 N    0.989061000000    1.125035000000    4.009541000000
 C    1.217664000000   -0.181397000000    3.533981000000
 N    0.132391000000   -0.948112000000    3.254878000000
 C   -1.110962000000   -0.473449000000    3.427648000000
 C   -1.352449000000    0.866038000000    3.915237000000
 C   -0.263556000000    1.629200000000    4.193047000000
 H    1.815200000000    1.673518000000    4.209209000000
 O    2.388816000000   -0.559081000000    3.396502000000
 N   -2.130425000000   -1.286139000000    3.131808000000
 H   -1.956075000000   -2.251999000000    2.780202000000
 H   -3.078136000000   -0.963291000000    3.249314000000
 H   -2.359817000000    1.249052000000    4.054652000000
 H   -0.332189000000    2.650698000000    4.564888000000
