13
0 1 
 N    0.989061000000   -0.402742000000    3.400058000000
 C    1.217664000000   -1.793037000000    3.400004000000
 N    0.132391000000   -2.608972000000    3.399965000000
 C   -1.110962000000   -2.103844000000    3.399971000000
 C   -1.352449000000   -0.678373000000    3.400023000000
 C   -0.263556000000    0.133781000000    3.400063000000
 H    1.815200000000    0.180954000000    3.400092000000
 O    2.388816000000   -2.194965000000    3.399991000000
 N   -2.130425000000   -2.968706000000    3.399929000000
 H   -1.956075000000   -3.996574000000    3.399871000000
 H   -3.078136000000   -2.625139000000    3.399928000000
 H   -2.359817000000   -0.270775000000    3.400032000000
 H   -0.332189000000    1.220853000000    3.400106000000
