13
0 1 
 N    0.986656000000    1.197258000000    3.531064000000
 C    1.214698000000   -0.193037000000    3.515064000000
 N    0.132066000000   -1.008972000000    3.590730000000
 C   -1.108258000000   -0.503844000000    3.677468000000
 C   -1.349153000000    0.921627000000    3.694365000000
 C   -0.262910000000    1.733781000000    3.618448000000
 H    1.810785000000    1.780954000000    3.473470000000
 O    2.382996000000   -0.594965000000    3.433356000000
 N   -2.125240000000   -1.368706000000    3.748540000000
 H   -1.951319000000   -2.396574000000    3.736320000000
 H   -3.070643000000   -1.025139000000    3.814648000000
 H   -2.354066000000    1.329225000000    3.764644000000
 H   -0.331372000000    2.820853000000    3.623278000000
