13
0 1 
 N    0.950762000000    1.197258000000    3.327434000000
 C    1.170495000000   -0.193037000000    3.264370000000
 N    0.127253000000   -1.008972000000    3.563474000000
 C   -1.067933000000   -0.503844000000    3.906195000000
 C   -1.300051000000    0.921627000000    3.972808000000
 C   -0.253329000000    1.733781000000    3.672706000000
 H    1.744908000000    1.780954000000    3.099752000000
 O    2.296275000000   -0.594965000000    2.941544000000
 N   -2.047916000000   -1.368706000000    4.187156000000
 H   -1.880336000000   -2.396574000000    4.139043000000
 H   -2.958914000000   -1.025139000000    4.448380000000
 H   -2.268393000000    1.329225000000    4.250484000000
 H   -0.319291000000    2.820853000000    3.691666000000
