13
0 1 
 N    0.967460000000    1.197258000000    3.394419000000
 C    1.191056000000   -0.193037000000    3.346837000000
 N    0.129491000000   -1.008972000000    3.572440000000
 C   -1.086691000000   -0.503844000000    3.830954000000
 C   -1.322890000000    0.921627000000    3.881212000000
 C   -0.257784000000    1.733781000000    3.654858000000
 H    1.775553000000    1.780954000000    3.222689000000
 O    2.336613000000   -0.594965000000    3.103328000000
 N   -2.083885000000   -1.368706000000    4.042871000000
 H   -1.913357000000   -2.396574000000    4.006565000000
 H   -3.010886000000   -1.025139000000    4.239910000000
 H   -2.308243000000    1.329225000000    4.090665000000
 H   -0.324908000000    2.820853000000    3.669170000000
