28
0 1 
 N   -0.214386000000   -1.993021000000    0.000158000000
 C   -1.483458000000   -1.537649000000    0.000039000000
 N   -1.896987000000   -0.269765000000   -0.000126000000
 C   -0.859092000000    0.583332000000   -0.000130000000
 C    0.502351000000    0.258224000000    0.000025000000
 C    0.818987000000   -1.120415000000    0.000169000000
 N    1.293025000000    1.395362000000   -0.000018000000
 C    0.430884000000    2.385528000000   -0.000191000000
 N   -0.884630000000    1.960299000000   -0.000268000000
 H   -2.247335000000   -2.317004000000    0.000055000000
 N    2.078153000000   -1.590279000000    0.000313000000
 H    2.839337000000   -0.928535000000    0.000354000000
 H    2.257625000000   -2.599226000000    0.000507000000
 H    0.686428000000    3.440469000000   -0.000272000000
 H   -1.715093000000    2.535836000000   -0.000408000000
 N    0.989061000000    1.194337000000    3.683574000000
 C    1.217664000000   -0.192567000000    3.586538000000
 N    0.132391000000   -1.006512000000    3.529583000000
 C   -1.110962000000   -0.502615000000    3.564825000000
 C   -1.352449000000    0.919380000000    3.664312000000
 C   -0.263556000000    1.729553000000    3.721005000000
 H    1.815200000000    1.776609000000    3.724325000000
 O    2.388816000000   -0.593515000000    3.558488000000
 N   -2.130425000000   -1.365367000000    3.504453000000
 H   -1.956075000000   -2.390727000000    3.432695000000
 H   -3.078136000000   -1.022637000000    3.528418000000
 H   -2.359817000000    1.325985000000    3.692754000000
 H   -0.332189000000    2.813974000000    3.796879000000
