13
0 1 
 N    0.929393000000    1.197258000000    3.938333000000
 C    1.144229000000   -0.193037000000    4.016469000000
 N    0.124419000000   -1.008972000000    3.645247000000
 C   -1.043953000000   -0.503844000000    3.220001000000
 C   -1.270894000000    0.921627000000    3.137457000000
 C   -0.247683000000    1.733781000000    3.509918000000
 H    1.705699000000    1.780954000000    4.220921000000
 O    2.244756000000   -0.594965000000    4.417015000000
 N   -2.001920000000   -1.368706000000    2.871285000000
 H   -1.838065000000   -2.396574000000    2.930862000000
 H   -2.892477000000   -1.025139000000    2.547148000000
 H   -2.217514000000    1.329225000000    2.792925000000
 H   -0.312192000000    2.820853000000    3.486484000000
