13
0 1 
 N    0.989061000000    1.197258000000    4.400058000000
 C    1.217664000000   -0.193037000000    4.400004000000
 N    0.132391000000   -1.008972000000    4.399965000000
 C   -1.110962000000   -0.503844000000    4.399971000000
 C   -1.352449000000    0.921627000000    4.400023000000
 C   -0.263556000000    1.733781000000    4.400063000000
 H    1.815200000000    1.780954000000    4.400092000000
 O    2.388816000000   -0.594965000000    4.399991000000
 N   -2.130425000000   -1.368706000000    4.399929000000
 H   -1.956075000000   -2.396574000000    4.399871000000
 H   -3.078136000000   -1.025139000000    4.399928000000
 H   -2.359817000000    1.329225000000    4.400032000000
 H   -0.332189000000    2.820853000000    4.400106000000
