13
0 1 
 N    0.989061000000    1.597258000000    3.400058000000
 C    1.217664000000    0.206963000000    3.400004000000
 N    0.132391000000   -0.608972000000    3.399965000000
 C   -1.110962000000   -0.103844000000    3.399971000000
 C   -1.352449000000    1.321627000000    3.400023000000
 C   -0.263556000000    2.133781000000    3.400063000000
 H    1.815200000000    2.180954000000    3.400092000000
 O    2.388816000000   -0.194965000000    3.399991000000
 N   -2.130425000000   -0.968706000000    3.399929000000
 H   -1.956075000000   -1.996574000000    3.399871000000
 H   -3.078136000000   -0.625139000000    3.399928000000
 H   -2.359817000000    1.729225000000    3.400032000000
 H   -0.332189000000    3.220853000000    3.400106000000
