13
0 1 
 N    0.989061000000    1.171083000000    3.848981000000
 C    1.217664000000   -0.188820000000    3.559869000000
 N    0.132391000000   -0.986916000000    3.390189000000
 C   -1.110962000000   -0.492828000000    3.495217000000
 C   -1.352449000000    0.901482000000    3.791640000000
 C   -0.263556000000    1.695881000000    3.960535000000
 H    1.815200000000    1.742017000000    3.970371000000
 O    2.388816000000   -0.581962000000    3.476291000000
 N   -2.130425000000   -1.338782000000    3.315361000000
 H   -1.956075000000   -2.344176000000    3.101598000000
 H   -3.078136000000   -1.002722000000    3.386791000000
 H   -2.359817000000    1.300172000000    3.876393000000
 H   -0.332189000000    2.759189000000    4.186592000000
