13
0 1 
 N    0.989061000000    1.997258000000    3.400058000000
 C    1.217664000000    0.606963000000    3.400004000000
 N    0.132391000000   -0.208972000000    3.399965000000
 C   -1.110962000000    0.296156000000    3.399971000000
 C   -1.352449000000    1.721627000000    3.400023000000
 C   -0.263556000000    2.533781000000    3.400063000000
 H    1.815200000000    2.580954000000    3.400092000000
 O    2.388816000000    0.205035000000    3.399991000000
 N   -2.130425000000   -0.568706000000    3.399929000000
 H   -1.956075000000   -1.596574000000    3.399871000000
 H   -3.078136000000   -0.225139000000    3.399928000000
 H   -2.359817000000    2.129225000000    3.400032000000
 H   -0.332189000000    3.620853000000    3.400106000000
