13
0 1 
 N    2.589061000000    1.197258000000    3.400058000000
 C    2.817664000000   -0.193037000000    3.400004000000
 N    1.732391000000   -1.008972000000    3.399965000000
 C    0.489038000000   -0.503844000000    3.399971000000
 C    0.247551000000    0.921627000000    3.400023000000
 C    1.336444000000    1.733781000000    3.400063000000
 H    3.415200000000    1.780954000000    3.400092000000
 O    3.988816000000   -0.594965000000    3.399991000000
 N   -0.530425000000   -1.368706000000    3.399929000000
 H   -0.356075000000   -2.396574000000    3.399871000000
 H   -1.478136000000   -1.025139000000    3.399928000000
 H   -0.759817000000    1.329225000000    3.400032000000
 H    1.267811000000    2.820853000000    3.400106000000
