28
0 1 
 N   -0.214386000000   -1.993021000000    0.000158000000
 C   -1.483458000000   -1.537649000000    0.000039000000
 N   -1.896987000000   -0.269765000000   -0.000126000000
 C   -0.859092000000    0.583332000000   -0.000130000000
 C    0.502351000000    0.258224000000    0.000025000000
 C    0.818987000000   -1.120415000000    0.000169000000
 N    1.293025000000    1.395362000000   -0.000018000000
 C    0.430884000000    2.385528000000   -0.000191000000
 N   -0.884630000000    1.960299000000   -0.000268000000
 H   -2.247335000000   -2.317004000000    0.000055000000
 N    2.078153000000   -1.590279000000    0.000313000000
 H    2.839337000000   -0.928535000000    0.000354000000
 H    2.257625000000   -2.599226000000    0.000507000000
 H    0.686428000000    3.440469000000   -0.000272000000
 H   -1.715093000000    2.535836000000   -0.000408000000
 N    0.989061000000    1.125074000000    3.190568000000
 C    1.217664000000   -0.181394000000    3.666026000000
 N    0.132391000000   -0.948136000000    3.945056000000
 C   -1.110962000000   -0.473468000000    3.772298000000
 C   -1.352449000000    0.866054000000    3.284807000000
 C   -0.263556000000    1.629243000000    3.007071000000
 H    1.815200000000    1.673581000000    2.990964000000
 O    2.388816000000   -0.559087000000    3.803482000000
 N   -2.130425000000   -1.286187000000    4.068058000000
 H   -1.956075000000   -2.252087000000    4.419555000000
 H   -3.078136000000   -0.963340000000    3.950551000000
 H   -2.359817000000    1.249074000000    3.145408000000
 H   -0.332189000000    2.650771000000    2.635311000000
