28
0 1 
 N   -0.214386000000   -1.993021000000    0.000158000000
 C   -1.483458000000   -1.537649000000    0.000039000000
 N   -1.896987000000   -0.269765000000   -0.000126000000
 C   -0.859092000000    0.583332000000   -0.000130000000
 C    0.502351000000    0.258224000000    0.000025000000
 C    0.818987000000   -1.120415000000    0.000169000000
 N    1.293025000000    1.395362000000   -0.000018000000
 C    0.430884000000    2.385528000000   -0.000191000000
 N   -0.884630000000    1.960299000000   -0.000268000000
 H   -2.247335000000   -2.317004000000    0.000055000000
 N    2.078153000000   -1.590279000000    0.000313000000
 H    2.839337000000   -0.928535000000    0.000354000000
 H    2.257625000000   -2.599226000000    0.000507000000
 H    0.686428000000    3.440469000000   -0.000272000000
 H   -1.715093000000    2.535836000000   -0.000408000000
 N    0.929433000000    1.197258000000    3.261776000000
 C    1.144231000000   -0.193037000000    3.183538000000
 N    0.124395000000   -1.008972000000    3.554687000000
 C   -1.043973000000   -0.503844000000    3.979944000000
 C   -1.270878000000    0.921627000000    4.062586000000
 C   -0.247640000000    1.733781000000    3.690201000000
 H    1.705762000000    1.780954000000    2.979251000000
 O    2.244750000000   -0.594965000000    2.782968000000
 N   -2.001969000000   -1.368706000000    4.328582000000
 H   -1.838153000000   -2.396574000000    4.268896000000
 H   -2.892526000000   -1.025139000000    4.652717000000
 H   -2.217492000000    1.329225000000    4.407135000000
 H   -0.312119000000    2.820853000000    3.713715000000
